geometry optimzed in LAMMPS
_audit_creation_date              2020-12-01 
_audit_creation_method            'lammps2cif' 
_symmetry_space_group_name_H-M    'P1' 
_symmetry_Int_Tables_number       1 
_symmetry_cell_setting            triclinic 
loop_ 
_symmetry_equiv_pos_as_xyz 
  x,y,z 
_cell_length_a                    65.26691695 
_cell_length_b                    65.12539771334725 
_cell_length_c                    65.12379009487937 
_cell_angle_alpha                 90.21107976017984 
_cell_angle_beta                  89.8296959329447 
_cell_angle_gamma                 90.17599929094641 
loop_ 
_atom_site_label 
_atom_site_type_symbol 
_atom_site_fract_x 
_atom_site_fract_y 
_atom_site_fract_z 
_atom_site_charge 
O1          O  0.67189592  0.14551442  0.52276551    -0.86200
O2          O  0.71183366  0.15603098  0.52674326    -0.83300
C3          C  0.73099690  0.15421669  0.52698986     0.97300
O4          O  0.73907422  0.14269781  0.51403987    -0.83300
O5          O  0.72430356  0.11037498  0.53697205    -0.85900
C6          C  0.71604366  0.09344396  0.54094752     1.01800
O7          O  0.70178589  0.08627466  0.52932277    -0.78700
O8          O  0.66984887  0.11247377  0.52912994    -0.78900
C9          C  0.66605284  0.13075827  0.53434403     1.01700
O10         O  0.67948748  0.14104245  0.47679025    -0.86200
O11         O  0.71955572  0.15130234  0.48170281    -0.83300
C12         C  0.73093472  0.13777305  0.47290278     0.97300
O13         O  0.73131411  0.11966095  0.47906323    -0.83300
O14         O  0.72721612  0.08535177  0.50171231    -0.85900
C15         C  0.71822780  0.07926880  0.48596910     1.01700
O16         O  0.70021605  0.08550279  0.48314037    -0.78700
O17         O  0.66678204  0.11064781  0.48345350    -0.78900
C18         C  0.66885544  0.12577228  0.47124695     1.01700
Cr19       Cr  0.69576281  0.14679770  0.50213755     1.93700
Cr20       Cr  0.72865196  0.11501103  0.50790049     1.93200
Cr21       Cr  0.68542992  0.10013815  0.50620135     1.39100
O22         O  0.70270754  0.12087245  0.50545553    -1.24000
O23         O  0.09067891  0.47815344  0.68079862    -0.86200
O24         O  0.06635713  0.47542885  0.71433862    -0.83300
C25         C  0.06047115  0.47728050  0.73273579     0.97300
O26         O  0.06498831  0.49365145  0.74123947    -0.83300
O27         O  0.10261543  0.47440047  0.74482988    -0.85900
C28         C  0.12144289  0.47057496  0.74273242     1.01800
O29         O  0.13283902  0.48150637  0.73076958    -0.78700
O30         O  0.12269711  0.47768120  0.69042643    -0.78900
C31         C  0.10778713  0.46897505  0.68158649     1.01700
O32         O  0.08734198  0.52459812  0.68262631    -0.86200
O33         O  0.06234150  0.52133277  0.71520465    -0.83300
C34         C  0.06803572  0.53347297  0.72959008     0.97300
O35         O  0.08463276  0.53066327  0.73903133    -0.83300
O36         O  0.12091998  0.51123100  0.75155008    -0.85900
C37         C  0.12801173  0.52722127  0.74434219     1.01700
O38         O  0.12988655  0.52795193  0.72523141    -0.78700
O39         O  0.12066779  0.52406978  0.68615036    -0.78900
C40         C  0.10452524  0.53357334  0.68075007     1.01700
Cr41       Cr  0.07816365  0.49995358  0.69897372     1.93700
Cr42       Cr  0.09366947  0.50249034  0.74238204     1.93200
Cr43       Cr  0.12492820  0.50256617  0.70832687     1.39100
O44         O  0.09902723  0.50152772  0.71597754    -1.24000
O45         O  0.50411737  0.68244717  0.14948801    -0.86200
O46         O  0.51488344  0.72121168  0.15897640    -0.83300
C47         C  0.51765194  0.74006186  0.15638250     0.97300
O48         O  0.50481737  0.75040480  0.14663351    -0.83300
O49         O  0.51733990  0.73649714  0.10944015    -0.85900
C50         C  0.51720133  0.72811573  0.09215573     1.01800
O51         O  0.50421381  0.71399264  0.08812328    -0.78700
O52         O  0.51165796  0.68436642  0.11682901    -0.78900
C53         C  0.51671826  0.67916579  0.13483657     1.01700
O54         O  0.45999153  0.69561268  0.15108985    -0.86200
O55         O  0.47167028  0.73409908  0.16307073    -0.83300
C56         C  0.46125811  0.74618789  0.15183163     0.97300
O57         O  0.46431990  0.74746853  0.13294885    -0.83300
O58         O  0.47675847  0.74020470  0.09428698    -0.85900
C59         C  0.46092090  0.72986396  0.09076282     1.01700
O60         O  0.46011249  0.71159707  0.09738102    -0.78700
O61         O  0.46654443  0.67838640  0.12317278    -0.78900
C62         C  0.45429975  0.68260825  0.13786788     1.01700
Cr63       Cr  0.48758616  0.70859455  0.15394497     1.93700
Cr64       Cr  0.49068573  0.74180489  0.12134240     1.93200
Cr65       Cr  0.48575890  0.69786366  0.10775008     1.39100
O66         O  0.48793242  0.71587057  0.12781285    -1.24000
O67         O  0.12999501  0.69505512  0.48015245    -0.86200
O68         O  0.15086079  0.73012274  0.48857456    -0.83300
C69         C  0.14228994  0.74323566  0.47691065     0.97300
O70         O  0.12431837  0.74911931  0.48021647    -0.83300
O71         O  0.08609246  0.75471376  0.49588611    -0.85900
C72         C  0.07650009  0.74390324  0.48318175     1.01800
O73         O  0.07908930  0.72477132  0.48274852    -0.78700
O74         O  0.09782353  0.68735035  0.48638388    -0.78900
C75         C  0.11332565  0.68699961  0.47434172     1.01700
O76         O  0.12737262  0.68501928  0.52486866    -0.86200
O77         O  0.14480668  0.72175657  0.53352809    -0.83300
C78         C  0.14656060  0.74092487  0.53474477     0.97300
O79         O  0.14125142  0.75153623  0.51971704    -0.83300
O80         O  0.10213745  0.75029244  0.53535968    -0.85900
C81         C  0.08424350  0.74374958  0.53830477     1.01700
O82         O  0.07641745  0.72982008  0.52691656    -0.78700
O83         O  0.09609092  0.69383428  0.53245587    -0.78900
C84         C  0.11236832  0.68472797  0.53735917     1.01700
Cr85       Cr  0.13663991  0.70875650  0.50679836     1.93700
Cr86       Cr  0.11351440  0.74935000  0.50775535     1.93200
Cr87       Cr  0.08914537  0.70943891  0.50712631     1.39100
O88         O  0.11295232  0.72223066  0.50717517    -1.24000
O89         O  0.46830832  0.13673591  0.68311743    -0.86200
O90         O  0.46268027  0.14578374  0.72369949    -0.83300
C91         C  0.46358743  0.14374181  0.74290386     0.97300
O92         O  0.47934321  0.13609114  0.75021035    -0.83300
O93         O  0.46045429  0.09861649  0.73942860    -0.85900
C94         C  0.45716207  0.08187876  0.73014397     1.01800
O95         O  0.46832271  0.07670205  0.71472215    -0.78700
O96         O  0.46219416  0.10380040  0.68365394    -0.78900
C97         C  0.45640321  0.12181531  0.67934088     1.01700
O98         O  0.51305890  0.13760583  0.68992739    -0.86200
O99         O  0.50818602  0.14895491  0.72850078    -0.83300
C100        C  0.52087915  0.13773828  0.73811734     0.97300
O101        O  0.51688237  0.11905530  0.74137284    -0.83300
O102        O  0.49862135  0.08059241  0.73868280    -0.85900
C103        C  0.51349400  0.07563734  0.72779249     1.01700
O104        O  0.51367648  0.08171720  0.70940027    -0.78700
O105        O  0.50821915  0.10716093  0.67661709    -0.78900
C106        C  0.51937161  0.12320537  0.67865535     1.01700
Cr107      Cr  0.48789716  0.14051813  0.70665782     1.93700
Cr108      Cr  0.48874456  0.10902973  0.74064807     1.93200
Cr109      Cr  0.48807233  0.09378896  0.69686379     1.39100
O110        O  0.48817524  0.11447126  0.71429108    -1.24000
O111        O  0.66842043  0.48162935  0.14882127    -0.86200
O112        O  0.70661019  0.47112452  0.15859586    -0.83300
C113        C  0.72507075  0.46701424  0.15562767     0.97300
O114        O  0.73572215  0.47758237  0.14353846    -0.83300
O115        O  0.72000872  0.46384253  0.10694125    -0.85900
C116        C  0.71176079  0.46408976  0.08955206     1.01800
O117        O  0.69770605  0.47717150  0.08617988    -0.78700
O118        O  0.66909348  0.47195483  0.11662445    -0.78900
C119        C  0.66437173  0.46812153  0.13511231     1.01700
O120        O  0.68291387  0.52578677  0.14665787    -0.86200
O121        O  0.72127016  0.51411286  0.15836720    -0.83300
C122        C  0.73421950  0.52258142  0.14628923     0.97300
O123        O  0.73542044  0.51751917  0.12781618    -0.83300
O124        O  0.72506233  0.50351855  0.09030094    -0.85900
C125        C  0.71573442  0.51993459  0.08710628     1.01700
O126        O  0.69755565  0.52163651  0.09386021    -0.78700
O127        O  0.66423644  0.51749716  0.12040810    -0.78900
C128        C  0.66915650  0.53064502  0.13406940     1.01700
Cr129      Cr  0.69504475  0.49812523  0.15130364     1.93700
Cr130      Cr  0.72718908  0.49082792  0.11779332     1.93200
Cr131      Cr  0.68300855  0.49696052  0.10562933     1.39100
O132        O  0.70161935  0.49532889  0.12510098    -1.24000
O133        O  0.62455170  0.80884222  0.03279819    -0.86200
O134        O  0.63897945  0.77149195  0.02737936    -0.83300
C135        C  0.62773875  0.76039593  0.03904678     0.97300
O136        O  0.61000135  0.75527498  0.03359895    -0.83300
O137        O  0.57282394  0.75610515  0.01461754    -0.85900
C138        C  0.56625661  0.76660697  0.02926657     1.01800
O139        O  0.57141871  0.78530710  0.03025528    -0.78700
O140        O  0.59410131  0.82068169  0.02600236    -0.78900
C141        C  0.60940670  0.81945750  0.03808178     1.01700
O142        O  0.62545967  0.81748518  0.98802160    -0.86200
O143        O  0.63810867  0.77882318  0.98178700    -0.83300
C144        C  0.63788105  0.75963356  0.98123551     0.97300
O145        O  0.62968871  0.75006745  0.99572818    -0.83300
O146        O  0.59289730  0.75865689  0.97690432    -0.85900
C147        C  0.57544517  0.76607341  0.97385231     1.01700
O148        O  0.56854541  0.78038869  0.98542811    -0.78700
O149        O  0.59316658  0.81353550  0.98011803    -0.78900
C150        C  0.61092410  0.81975922  0.97530110     1.01700
Cr151      Cr  0.63017729  0.79362881  0.00734048     1.93700
Cr152      Cr  0.60169327  0.75687725  0.00523413     1.93200
Cr153      Cr  0.58326763  0.79935648  0.00549133     1.39100
O154        O  0.60506216  0.78367969  0.00607374    -1.24000
O155        O  0.78962455  0.36034517  0.03182452    -0.86200
O156        O  0.74944791  0.35219126  0.02625478    -0.83300
C157        C  0.73954469  0.36596222  0.03602660     0.97300
O158        O  0.73991700  0.38430052  0.03062363    -0.83300
O159        O  0.74783671  0.41959808  0.01172904    -0.85900
C160        C  0.75918090  0.42404191  0.02647014     1.01800
O161        O  0.77678155  0.41610341  0.02726137    -0.78700
O162        O  0.80729494  0.38735178  0.02292454    -0.78900
C163        C  0.80310405  0.37350769  0.03614816     1.01700
O164        O  0.79698732  0.35598929  0.98623905    -0.86200
O165        O  0.75626883  0.34785725  0.98232838    -0.83300
C166        C  0.73726973  0.35101831  0.98219355     0.97300
O167        O  0.73013384  0.36499407  0.99338720    -0.83300
O168        O  0.74676847  0.39893357  0.97376436    -0.85900
C169        C  0.75576628  0.41585738  0.97190991     1.01700
O170        O  0.77187295  0.41958923  0.98255413    -0.78700
O171        O  0.79972478  0.38858785  0.97740484    -0.78900
C172        C  0.80167424  0.36975860  0.97312480     1.01700
Cr173      Cr  0.77318364  0.35601539  0.00645304     1.93700
Cr174      Cr  0.74302829  0.39114715  0.00229624     1.93200
Cr175      Cr  0.78801197  0.40143865  0.00248749     1.39100
O176        O  0.76840510  0.38262737  0.00350718    -1.24000
O177        O  0.34851639  0.02044504  0.82525380    -0.86200
O178        O  0.33796790  0.02836966  0.78556122    -0.83300
C179        C  0.33955254  0.02815904  0.76625493     0.97300
O180        O  0.34438808  0.01159981  0.75812798    -0.83300
O181        O  0.38397926  0.02610150  0.76569439    -0.85900
C182        C  0.40131080  0.02794241  0.77394820     1.01800
O183        O  0.40639205  0.01623968  0.78883174    -0.78700
O184        O  0.38136637  0.02505558  0.82131673    -0.78900
C185        C  0.36422740  0.03169540  0.82757144     1.01700
O186        O  0.34382279  0.97575465  0.81707081    -0.86200
O187        O  0.32976086  0.98316035  0.77913210    -0.83300
C188        C  0.33960098  0.97001527  0.76843829     0.97300
O189        O  0.35838847  0.97211979  0.76503675    -0.83300
O190        O  0.39770961  0.98558946  0.76445297    -0.85900
C191        C  0.40312918  0.97123531  0.77587032     1.01700
O192        O  0.39818275  0.97184131  0.79465681    -0.78700
O193        O  0.37485032  0.97978926  0.82887114    -0.78900
C194        C  0.35858012  0.96894623  0.82752496     1.01700
Cr195      Cr  0.34164721  0.00189595  0.80128080     1.93700
Cr196      Cr  0.37078017  0.99900159  0.76513699     1.93200
Cr197      Cr  0.38866044  0.99834590  0.80774576     1.39100
O198        O  0.36708996  0.99971102  0.79178385    -1.24000
O199        O  0.00566106  0.64106610  0.82564669    -0.86200
O200        O  0.01329578  0.65276269  0.78603390    -0.83300
C201        C  0.01362029  0.65178385  0.76672323     0.97300
O202        O  0.00074859  0.64091009  0.75756447    -0.83300
O203        O  0.01549662  0.60331694  0.76812779    -0.85900
C204        C  0.01721305  0.58621502  0.77684033     1.01800
O205        O  0.00537239  0.58119752  0.79161690    -0.78700
O206        O  0.01270335  0.60838280  0.82284321    -0.78900
C207        C  0.01797493  0.62621974  0.82865915     1.01700
O208        O  0.96087966  0.64172339  0.81547254    -0.86200
O209        O  0.96988218  0.65557601  0.77666763    -0.83300
C210        C  0.95941808  0.64478481  0.76411143     0.97300
O211        O  0.96092322  0.62570572  0.76397570    -0.83300
O212        O  0.97562215  0.58732898  0.76628099    -0.85900
C213        C  0.96140812  0.58117425  0.77764069     1.01700
O214        O  0.96103860  0.58703703  0.79623931    -0.78700
O215        O  0.96752265  0.61247375  0.83014774    -0.78900
C216        C  0.95555559  0.62767102  0.82766234     1.01700
Cr217      Cr  0.98731991  0.64585044  0.80077736     1.93700
Cr218      Cr  0.98819034  0.61478271  0.76602013     1.93200
Cr219      Cr  0.98671533  0.59887950  0.80940157     1.39100
O220        O  0.98761122  0.61987893  0.79237855    -1.24000
O221        O  0.01139936  0.81576496  0.36508530    -0.86200
O222        O  0.00746636  0.77688081  0.35246138    -0.83300
C223        C  0.02227043  0.76815775  0.36156215     0.97300
O224        O  0.02271911  0.76709424  0.38087211    -0.83300
O225        O  0.01047719  0.76734921  0.42166064    -0.85900
C226        C  0.02013296  0.78221932  0.42909735     1.01800
O227        O  0.01722786  0.80013165  0.42245565    -0.78700
O228        O  0.00572415  0.82994598  0.39510806    -0.78900
C229        C  0.01701145  0.82785298  0.37913152     1.01700
O230        O  0.96679157  0.82001286  0.36982435    -0.86200
O231        O  0.96315342  0.77865714  0.36236789    -0.83300
C232        C  0.96587436  0.75966366  0.36470938     0.97300
O233        O  0.98330916  0.75407247  0.36987225    -0.83300
O234        O  0.97062049  0.76067527  0.40946199    -0.85900
C235        C  0.96715719  0.77005525  0.42605876     1.01700
O236        O  0.97530067  0.78755044  0.42970538    -0.78700
O237        O  0.96179689  0.81647278  0.40272845    -0.78900
C238        C  0.95498139  0.82100054  0.38521973     1.01700
Cr239      Cr  0.98735217  0.79753279  0.36423863     1.93700
Cr240      Cr  0.99652005  0.76417265  0.39505753     1.93200
Cr241      Cr  0.99000024  0.80774216  0.41082881     1.39100
O242        O  0.99137168  0.79013042  0.39023190    -1.24000
O243        O  0.80878485  0.01970794  0.64194083    -0.86200
O244        O  0.77171438  0.03024222  0.65653089    -0.83300
C245        C  0.75268168  0.03264031  0.65692114     0.97300
O246        O  0.74148599  0.01835577  0.65045514    -0.83300
O247        O  0.74830927  0.03339076  0.61161801    -0.85900
C248        C  0.75528256  0.03516883  0.59372378     1.01800
O249        O  0.76889019  0.02279840  0.58685255    -0.78700
O250        O  0.80353741  0.02697110  0.60972172    -0.78900
C251        C  0.81074106  0.03202238  0.62702459     1.01700
O252        O  0.79653424  0.97592199  0.64406588    -0.86200
O253        O  0.76087940  0.98504835  0.66087501    -0.83300
C254        C  0.74933409  0.97322451  0.65029118     0.97300
O255        O  0.74267939  0.97886037  0.63316798    -0.83300
O256        O  0.74218411  0.99452579  0.59470616    -0.85900
C257        C  0.75227901  0.98017075  0.58681917     1.01700
O258        O  0.77090125  0.97817999  0.59157079    -0.78700
O259        O  0.80702944  0.98031409  0.61268347    -0.78900
C260        C  0.80556847  0.96884982  0.62854378     1.01700
Cr261      Cr  0.78377939  0.00291858  0.64925179     1.93700
Cr262      Cr  0.74559777  0.00615278  0.62278800     1.93200
Cr263      Cr  0.78704952  0.00217385  0.60185162     1.39100
O264        O  0.77246027  0.00369612  0.62456326    -1.24000
O265        O  0.34683563  0.81325361  0.98512562    -0.86200
O266        O  0.33890975  0.77341632  0.97759424    -0.83300
C267        C  0.34188440  0.75439521  0.97698936     0.97300
O268        O  0.34807097  0.74602723  0.99300636    -0.83300
O269        O  0.38757369  0.75585254  0.97955614    -0.85900
C270        C  0.40446993  0.76529671  0.97849754     1.01800
O271        O  0.40781992  0.78114576  0.98970376    -0.78700
O272        O  0.37986566  0.81098823  0.97958072    -0.78900
C273        C  0.36207725  0.81548309  0.97311973     1.01700
O274        O  0.34335414  0.80422863  0.03025102    -0.86200
O275        O  0.33199856  0.76564000  0.02234203    -0.83300
C276        C  0.34259767  0.75568633  0.03534804     0.97300
O277        O  0.36151358  0.75358848  0.03306527    -0.83300
O278        O  0.40070908  0.75724411  0.01963914    -0.85900
C279        C  0.40440068  0.76866909  0.03457570     1.01700
O280        O  0.39822163  0.78708920  0.03382266    -0.78700
O281        O  0.37252406  0.81951284  0.02471707    -0.78900
C282        C  0.35713316  0.81629886  0.03644034     1.01700
Cr283      Cr  0.34195279  0.78880979  0.00388840     1.93700
Cr284      Cr  0.37386704  0.75491349  0.00619605     1.93200
Cr285      Cr  0.38824110  0.79897539  0.00683386     1.39100
O286        O  0.36805122  0.78121625  0.00547620    -1.24000
O287        O  0.79105744  0.63924426  0.98197995    -0.86200
O288        O  0.75311329  0.65183787  0.99373331    -0.83300
C289        C  0.73996956  0.64020967  0.98485611     0.97300
O290        O  0.73822175  0.62161347  0.98928242    -0.83300
O291        O  0.74601266  0.58416858  0.00356669    -0.85900
C292        C  0.75555951  0.57962642  0.98748561     1.01800
O293        O  0.77380296  0.58575705  0.98523199    -0.78700
O294        O  0.80775103  0.61122527  0.98910318    -0.78900
C295        C  0.80352040  0.62554160  0.97651653     1.01700
O296        O  0.80538478  0.63970372  0.02581393    -0.86200
O297        O  0.76739801  0.65082343  0.03700856    -0.83300
C298        C  0.74856517  0.64896641  0.04014929     0.97300
O299        O  0.73784396  0.63823743  0.02836951    -0.83300
O300        O  0.75205922  0.60176600  0.04326230    -0.85900
C301        C  0.75909209  0.58391095  0.04307582     1.01700
O302        O  0.77263901  0.57893574  0.02976604    -0.78700
O303        O  0.80304917  0.60736079  0.03438259    -0.78900
C304        C  0.80892147  0.62536361  0.03862796     1.01700
Cr305      Cr  0.77894296  0.64370220  0.00965138     1.93700
Cr306      Cr  0.74537539  0.61187917  0.01599397     1.93200
Cr307      Cr  0.78859772  0.59722952  0.00970994     1.39100
O308        O  0.77118519  0.61775781  0.01153173    -1.24000
O309        O  0.59490257  0.02661476  0.81659360    -0.86200
O310        O  0.57062899  0.01617090  0.78362493    -0.83300
C311        C  0.57543823  0.02567649  0.76711176     0.97300
O312        O  0.59256570  0.02283638  0.75849374    -0.83300
O313        O  0.63224644  0.00825325  0.75376016    -0.85900
C314        C  0.63723445  0.02543106  0.76031533     1.01800
O315        O  0.63817168  0.02733584  0.77961114    -0.78700
O316        O  0.62769004  0.02200344  0.82023681    -0.78900
C317        C  0.61206738  0.03322559  0.82285779     1.01700
O318        O  0.60030301  0.98111959  0.82590284    -0.86200
O319        O  0.57592254  0.97270236  0.79270117    -0.83300
C320        C  0.57090986  0.97140360  0.77405539     0.97300
O321        O  0.57884120  0.98303179  0.76111653    -0.83300
O322        O  0.61825266  0.96897322  0.76350634    -0.85900
C323        C  0.63729436  0.96815771  0.76635604     1.01700
O324        O  0.64651137  0.98215444  0.77646022    -0.78700
O325        O  0.63144596  0.97674660  0.81433731    -0.78900
C326        C  0.61646972  0.97009946  0.82475614     1.01700
Cr327      Cr  0.58715699  0.99927362  0.80395057     1.93700
Cr328      Cr  0.60580567  0.99598749  0.76116880     1.93200
Cr329      Cr  0.63419803  0.00200128  0.79724355     1.39100
O330        O  0.60885769  0.99915477  0.78781459    -1.24000
O331        O  0.96552348  0.36149493  0.82571950    -0.86200
O332        O  0.95935278  0.34745669  0.78683976    -0.83300
C333        C  0.96051334  0.34721157  0.76756520     0.97300
O334        O  0.97586653  0.35502296  0.75903093    -0.83300
O335        O  0.96487155  0.39473582  0.76293152    -0.85900
C336        C  0.96279376  0.41234467  0.77057458     1.01800
O337        O  0.97276951  0.41777879  0.78663949    -0.78700
O338        O  0.96103002  0.39410015  0.81950771    -0.78900
C339        C  0.95399229  0.37731157  0.82609425     1.01700
O340        O  0.01075541  0.35651004  0.81808849    -0.86200
O341        O  0.00302394  0.33949486  0.78009832    -0.83300
C342        C  0.01579803  0.34897063  0.76866302     0.97300
O343        O  0.01689230  0.36795581  0.76984552    -0.83300
O344        O  0.00539668  0.40723116  0.76551657    -0.85900
C345        C  0.01792944  0.41429558  0.77821977     1.01700
O346        O  0.01588360  0.40972852  0.79693790    -0.78700
O347        O  0.00417639  0.38684818  0.83074851    -0.78900
C348        C  0.01614495  0.37150573  0.82910965     1.01700
Cr349      Cr  0.98494505  0.35299191  0.80252891     1.93700
Cr350      Cr  0.99064273  0.38083688  0.76613225     1.93200
Cr351      Cr  0.98833531  0.40055146  0.80778390     1.39100
O352        O  0.98726129  0.37829684  0.79241979    -1.24000
O353        O  0.96458320  0.81800582  0.64149172    -0.86200
O354        O  0.96008011  0.77757867  0.64965743    -0.83300
C355        C  0.96132531  0.75843509  0.64718667     0.97300
O356        O  0.97797600  0.75114436  0.64094346    -0.83300
O357        O  0.96697132  0.76079823  0.60077065    -0.85900
C358        C  0.96607876  0.77006659  0.58382705     1.01800
O359        O  0.97622272  0.78663533  0.58095856    -0.78700
O360        O  0.96138848  0.81527007  0.60812411    -0.78900
C361        C  0.95351864  0.81927475  0.62552451     1.01700
O362        O  0.00989965  0.81290304  0.64767012    -0.86200
O363        O  0.00465682  0.77440594  0.65921462    -0.83300
C364        C  0.01968492  0.76638087  0.64964265     0.97300
O365        O  0.01843494  0.76294759  0.63074494    -0.83300
O366        O  0.00751363  0.76575632  0.59045458    -0.85900
C367        C  0.02159565  0.77851146  0.58823459     1.01700
O368        O  0.01854267  0.79674238  0.59406959    -0.78700
O369        O  0.00494122  0.82781471  0.61840296    -0.78900
C370        C  0.01635803  0.82485653  0.63396026     1.01700
Cr371      Cr  0.98490376  0.79546057  0.64783043     1.93700
Cr372      Cr  0.99244438  0.76186669  0.61630987     1.93200
Cr373      Cr  0.99007417  0.80582761  0.60174964     1.39100
O374        O  0.98884151  0.78796036  0.62194552    -1.24000
O375        O  0.79624809  0.97453591  0.37002830    -0.86200
O376        O  0.75601533  0.98120613  0.36389431    -0.83300
C377        C  0.74601368  0.97039149  0.37693125     0.97300
O378        O  0.74724096  0.97410656  0.39583585    -0.83300
O379        O  0.75641957  0.99398148  0.43205403    -0.85900
C380        C  0.76536297  0.97757230  0.43509115     1.01800
O381        O  0.78298800  0.97573952  0.42720280    -0.78700
O382        O  0.81356102  0.98037531  0.39810415    -0.78900
C383        C  0.80900392  0.96849473  0.38323893     1.01700
O384        O  0.80475522  0.02000595  0.36883655    -0.86200
O385        O  0.76357846  0.02646457  0.36405616    -0.83300
C386        C  0.74466211  0.02605454  0.36809997     0.97300
O387        O  0.73808274  0.01154261  0.37853818    -0.83300
O388        O  0.75524845  0.03106541  0.41275929    -0.85900
C389        C  0.76653285  0.03417866  0.42823766     1.01700
O390        O  0.78148342  0.02205486  0.43199363    -0.78700
O391        O  0.80906263  0.02601615  0.40156382    -0.78900
C392        C  0.81109614  0.03179795  0.38312892     1.01700
Cr393      Cr  0.78023190  0.00066366  0.36839203     1.93700
Cr394      Cr  0.75089543  0.00263393  0.40413452     1.93200
Cr395      Cr  0.79583094  0.00097926  0.41349128     1.39100
O396        O  0.77611713  0.00157912  0.39513112    -1.24000
O397        O  0.83949589  0.30668927  0.48026526    -0.86200
O398        O  0.82238945  0.26981491  0.48833334    -0.83300
C399        C  0.83027621  0.25791789  0.47485998     0.97300
O400        O  0.84913886  0.25368526  0.47526639    -0.83300
O401        O  0.89008797  0.25203674  0.48687710    -0.85900
C402        C  0.89753739  0.26459023  0.47443649     1.01800
O403        O  0.89337543  0.28341678  0.47622085    -0.78700
O404        O  0.87109802  0.31778419  0.48474528    -0.78900
C405        C  0.85510821  0.31620719  0.47357301     1.01700
O406        O  0.84521528  0.31495849  0.52509253    -0.86200
O407        O  0.83383385  0.27531346  0.53333285    -0.83300
C408        C  0.83580490  0.25606346  0.53249310     0.97300
O409        O  0.83751541  0.24873967  0.51513173    -0.83300
O410        O  0.87858523  0.25147660  0.52759045    -0.85900
C411        C  0.89586761  0.25980158  0.52985581     1.01700
O412        O  0.90093502  0.27560074  0.51946174    -0.78700
O413        O  0.87745914  0.30866470  0.52996673    -0.78900
C414        C  0.86088859  0.31628716  0.53651372     1.01700
Cr415      Cr  0.83680995  0.29111899  0.50663052     1.93700
Cr416      Cr  0.86367632  0.25332089  0.50137688     1.93200
Cr417      Cr  0.88399173  0.29564948  0.50269351     1.39100
O418        O  0.86168486  0.28031917  0.50326046    -1.24000
O419        O  0.51251454  0.31185457  0.86228346    -0.86200
O420        O  0.50239067  0.27203666  0.85369731    -0.83300
C421        C  0.51347282  0.26079144  0.86501782     0.97300
O422        O  0.51248666  0.26170879  0.88411853    -0.83300
O423        O  0.50244186  0.27244035  0.92229447    -0.85900
C424        C  0.51655649  0.28533088  0.92474447     1.01800
O425        O  0.51495098  0.30298011  0.91682910    -0.78700
O426        O  0.50430932  0.33194294  0.88769221    -0.78900
C427        C  0.51726005  0.32645737  0.87412709     1.01700
O428        O  0.46766180  0.32251436  0.86359482    -0.86200
O429        O  0.45955948  0.28184252  0.85771873    -0.83300
C430        C  0.45862423  0.26304893  0.86192534     0.97300
O431        O  0.47131046  0.25502545  0.87381277    -0.83300
O432        O  0.46048172  0.27099782  0.91051712    -0.85900
C433        C  0.45983712  0.28215155  0.92617114     1.01700
O434        O  0.47175771  0.29752114  0.92808439    -0.78700
O435        O  0.46014148  0.32276145  0.89625762    -0.78900
C436        C  0.45468210  0.32598400  0.87785451     1.01700
Cr437      Cr  0.48570254  0.29711896  0.86116173     1.93700
Cr438      Cr  0.48659608  0.26702073  0.89700006     1.93200
Cr439      Cr  0.48767799  0.31274214  0.90589371     1.39100
O440        O  0.48659414  0.29238695  0.88792599    -1.24000
O441        O  0.82656564  0.33618392  0.69772073    -0.86200
O442        O  0.84394167  0.36636953  0.67195528    -0.83300
C443        C  0.85958979  0.37689970  0.66674541     0.97300
O444        O  0.87543741  0.36800035  0.65958063    -0.83300
O445        O  0.89755670  0.34959531  0.69053136    -0.85900
C446        C  0.90148763  0.33745726  0.70502285     1.01800
O447        O  0.89315867  0.32022477  0.70567842    -0.78700
O448        O  0.85503723  0.33340305  0.71512771    -0.78900
C449        C  0.83614869  0.33656789  0.71493255     1.01700
O450        O  0.83191327  0.30600420  0.66296465    -0.86200
O451        O  0.84535301  0.33821739  0.63715655    -0.83300
C452        C  0.86099188  0.33296176  0.62660016     0.97300
O453        O  0.87752305  0.32936338  0.63595923    -0.83300
O454        O  0.90066085  0.31149496  0.66670780    -0.85900
C455        C  0.89379985  0.29366639  0.67112042     1.01700
O456        O  0.87653037  0.29120324  0.67918451    -0.78700
O457        O  0.83828858  0.29953600  0.69457038    -0.78900
C458        C  0.83197485  0.29325411  0.67767324     1.01700
Cr459      Cr  0.83852225  0.33623922  0.66792282     1.93700
Cr460      Cr  0.88598763  0.33893676  0.66397596     1.93200
Cr461      Cr  0.86557084  0.31250610  0.69693663     1.39100
O462        O  0.86344903  0.32959979  0.67603287    -1.24000
O463        O  0.85449509  0.16857370  0.65148640    -0.86200
O464        O  0.81954426  0.19078157  0.66722318    -0.83300
C465        C  0.81951146  0.20805246  0.65793113     0.97300
O466        O  0.81908062  0.20832068  0.63888391    -0.83300
O467        O  0.81624565  0.19942990  0.59962768    -0.85900
C468        C  0.83515934  0.19855543  0.59595729     1.01800
O469        O  0.84542696  0.18323393  0.60153895    -0.78700
O470        O  0.85678121  0.14955053  0.62422413    -0.78900
C471        C  0.86579227  0.15986776  0.63800638     1.01700
O472        O  0.82849690  0.13133519  0.64714260    -0.86200
O473        O  0.79386246  0.15438187  0.65901399    -0.83300
C474        C  0.77959307  0.16740035  0.65652926     0.97300
O475        O  0.78360941  0.18442589  0.64836278    -0.83300
O476        O  0.78406724  0.17131563  0.60875946    -0.85900
C477        C  0.78959241  0.16675789  0.59093708     1.01700
O478        O  0.80835097  0.16241360  0.58783639    -0.78700
O479        O  0.81847727  0.13027584  0.61494915    -0.78900
C480        C  0.82301186  0.12093712  0.63132261     1.01700
Cr481      Cr  0.82391757  0.16171608  0.65476071     1.93700
Cr482      Cr  0.80189980  0.18932014  0.62435506     1.93200
Cr483      Cr  0.83132513  0.15713187  0.60852460     1.39100
O484        O  0.81889978  0.16914432  0.62931316    -1.24000
O485        O  0.81699801  0.35080044  0.87317723    -0.86200
O486        O  0.79377552  0.34267729  0.83760937    -0.83300
C487        C  0.77711388  0.35289370  0.83901405     0.97300
O488        O  0.77788286  0.37191147  0.84121691    -0.83300
O489        O  0.78925971  0.41136726  0.84178485    -0.85900
C490        C  0.78942997  0.41375865  0.86090617     1.01800
O491        O  0.80318867  0.40535216  0.87154165    -0.78700
O492        O  0.83430332  0.37832899  0.88213334    -0.78900
C493        C  0.82409239  0.36254571  0.88703254     1.01700
O494        O  0.85433184  0.35707491  0.84782078    -0.86200
O495        O  0.83024881  0.35211869  0.81284223    -0.83300
C496        C  0.81674715  0.35575401  0.79940819     0.97300
O497        O  0.80071136  0.36489375  0.80480359    -0.83300
O498        O  0.81742373  0.40336725  0.80995928    -0.85900
C499        C  0.82445872  0.41939425  0.81817232     1.01700
O500        O  0.82761953  0.42015809  0.83741118    -0.78700
O501        O  0.85689311  0.39075683  0.84642744    -0.78900
C502        C  0.86517174  0.37324535  0.84522455     1.01700
Cr503      Cr  0.82352326  0.35242270  0.84303787     1.93700
Cr504      Cr  0.79792303  0.38715430  0.82569366     1.93200
Cr505      Cr  0.82966902  0.39720492  0.85824557     1.39100
O506        O  0.81735137  0.37885529  0.84235701    -1.24000
O507        O  0.65564703  0.37122072  0.85884261    -0.86200
O508        O  0.67685813  0.33805961  0.84192906    -0.83300
C509        C  0.69351209  0.33583002  0.85208417     0.97300
O510        O  0.69292570  0.33119087  0.87078343    -0.83300
O511        O  0.67972176  0.31856720  0.90868507    -0.85900
C512        C  0.68083416  0.33547703  0.91784021     1.01800
O513        O  0.66899843  0.34990301  0.91285157    -0.78700
O514        O  0.64212213  0.37308311  0.88995041    -0.78900
C515        C  0.65077948  0.38154475  0.87469479     1.01700
O516        O  0.61704895  0.34837602  0.85816244    -0.86200
O517        O  0.63774263  0.31340824  0.84475317    -0.83300
C518        C  0.65003814  0.29845930  0.84558803     0.97300
O519        O  0.66762823  0.30204150  0.85210563    -0.83300
O520        O  0.64960913  0.29463113  0.88949365    -0.85900
C521        C  0.64119882  0.29824827  0.90645189     1.01700
O522        O  0.64005206  0.31649461  0.91338762    -0.78700
O523        O  0.61361556  0.33858988  0.89006846    -0.78900
C524        C  0.60556461  0.34361622  0.87326369     1.01700
Cr525      Cr  0.64726055  0.34216760  0.85246733     1.93700
Cr526      Cr  0.67111903  0.31319902  0.88004871     1.93200
Cr527      Cr  0.64195889  0.34388881  0.89978619     1.39100
O528        O  0.65338468  0.33355824  0.87750802    -1.24000
O529        O  0.62790471  0.13419590  0.84547887    -0.86200
O530        O  0.64097903  0.15927374  0.81269376    -0.83300
C531        C  0.63939870  0.17248695  0.79848563     0.97300
O532        O  0.63152772  0.18935435  0.80311698    -0.83300
O533        O  0.59387493  0.17074810  0.79555764    -0.85900
C534        C  0.57703933  0.16189184  0.79914117     1.01800
O535        O  0.57080764  0.15857661  0.81739516    -0.78700
O536        O  0.59574245  0.13056298  0.83644584    -0.78900
C537        C  0.61283072  0.12253623  0.84054112     1.01700
O538        O  0.62620734  0.17156285  0.87205390    -0.86200
O539        O  0.64208862  0.19587117  0.84119880    -0.83300
C540        C  0.63092885  0.21204902  0.84137566     0.97300
O541        O  0.61271771  0.21103055  0.83550917    -0.83300
O542        O  0.57563539  0.19750393  0.82296619    -0.85900
C543        C  0.56867988  0.19816279  0.84075292     1.01700
O544        O  0.57401988  0.18488451  0.85363472    -0.78700
O545        O  0.59665546  0.15570292  0.87358688    -0.78900
C546        C  0.61105597  0.16526150  0.88259831     1.01700
Cr547      Cr  0.63277219  0.16547447  0.84228021     1.93700
Cr548      Cr  0.60389017  0.19058606  0.81570851     1.93200
Cr549      Cr  0.58595411  0.15832677  0.84452073     1.39100
O550        O  0.60758352  0.17104200  0.83423092    -1.24000
O551        O  0.61843299  0.14485372  0.67113919    -0.86200
O552        O  0.64905662  0.16368823  0.69503672    -0.83300
C553        C  0.64971389  0.15350301  0.71180201     0.97300
O554        O  0.65687954  0.13572204  0.71179343    -0.83300
O555        O  0.66684396  0.09781764  0.70056938    -0.85900
C556        C  0.64923170  0.09024077  0.70043232     1.01800
O557        O  0.63697173  0.09473063  0.68614228    -0.78700
O558        O  0.61910753  0.11615309  0.65386130    -0.78900
C559        C  0.60877424  0.12998945  0.66282168     1.01700
O560        O  0.64491273  0.14613898  0.63451145    -0.86200
O561        O  0.67728079  0.16126368  0.65815471    -0.83300
C562        C  0.69209153  0.16000040  0.67067471     0.97300
O563        O  0.68879138  0.15224515  0.68792780    -0.83300
O564        O  0.69608359  0.11250416  0.67276710    -0.85900
C565        C  0.69244703  0.09456082  0.66626430     1.01700
O566        O  0.67414865  0.08906462  0.66225646    -0.78700
O567        O  0.65732190  0.11490517  0.63169890    -0.78900
C568        C  0.65152652  0.13146244  0.62326730     1.01700
Cr569      Cr  0.64814273  0.15243841  0.66522565     1.93700
Cr570      Cr  0.67574221  0.12499716  0.69150110     1.93200
Cr571      Cr  0.64766753  0.10544989  0.65937567     1.39100
O572        O  0.65716666  0.12768775  0.67178968    -1.24000
O573        O  0.01196606  0.19375113  0.64715156    -0.86200
O574        O  0.99768902  0.23067980  0.66022998    -0.83300
C575        C  0.00766704  0.24389566  0.64987329     0.97300
O576        O  0.00486770  0.24595472  0.63100180    -0.83300
O577        O  0.99466158  0.23985192  0.59156848    -0.85900
C578        C  0.00933955  0.22880568  0.58566981     1.01800
O579        O  0.01050822  0.21028544  0.59144037    -0.78700
O580        O  0.00753560  0.17744126  0.61794668    -0.78900
C581        C  0.01903977  0.18239296  0.63312916     1.01700
O582        O  0.96886693  0.17785040  0.64458862    -0.86200
O583        O  0.95563284  0.21531256  0.65453225    -0.83300
C584        C  0.95141447  0.23388136  0.65240091     0.97300
O585        O  0.96358452  0.24560870  0.64318868    -0.83300
O586        O  0.95353066  0.23237223  0.60492609    -0.85900
C587        C  0.95385528  0.22455052  0.58736616     1.01700
O588        O  0.96722198  0.21089656  0.58333992    -0.78700
O589        O  0.96073859  0.18075091  0.61242697    -0.78900
C590        C  0.95575844  0.17525020  0.63041161     1.01700
Cr591      Cr  0.98364910  0.20477740  0.64973608     1.93700
Cr592      Cr  0.97940936  0.23894619  0.61809478     1.93200
Cr593      Cr  0.98625172  0.19545594  0.60299229     1.39100
O594        O  0.98357129  0.21296244  0.62362914    -1.24000
O595        O  0.18189035  0.97654955  0.65176449    -0.86200
O596        O  0.22040233  0.98847848  0.66362980    -0.83300
C597        C  0.23394541  0.98033152  0.65188898     0.97300
O598        O  0.23532311  0.98494153  0.63323621    -0.83300
O599        O  0.22661741  0.99982188  0.59567399    -0.85900
C600        C  0.21731708  0.98372253  0.59075395     1.01800
O601        O  0.19950681  0.98070897  0.59782670    -0.78700
O602        O  0.16555555  0.98260809  0.62309863    -0.78900
C603        C  0.17015084  0.97038815  0.63758467     1.01700
O604        O  0.16812544  0.02120934  0.65278702    -0.86200
O605        O  0.20641408  0.03186030  0.66340744    -0.83300
C606        C  0.22520803  0.03510876  0.66104634     0.97300
O607        O  0.23554286  0.02342322  0.65000514    -0.83300
O608        O  0.21872787  0.03872514  0.61464950    -0.85900
C609        C  0.21226299  0.03857033  0.59664893     1.01700
O610        O  0.19910302  0.02494714  0.59166930    -0.78700
O611        O  0.16876455  0.02843303  0.61999196    -0.78900
C612        C  0.16401210  0.03349515  0.63810673     1.01700
Cr613      Cr  0.19436767  0.00446153  0.65619794     1.93700
Cr614      Cr  0.22714319  0.01156392  0.62380056     1.93200
Cr615      Cr  0.18395854  0.00428031  0.60971908     1.39100
O616        O  0.20159470  0.00630785  0.63012455    -1.24000
O617        O  0.30125053  0.14219886  0.48558554    -0.86200
O618        O  0.26058142  0.15243536  0.48257808    -0.83300
C619        C  0.24145090  0.15034476  0.48465067     0.97300
O620        O  0.23562621  0.14448509  0.50176142    -0.83300
O621        O  0.24234897  0.10722179  0.48231370    -0.85900
C622        C  0.25082377  0.09044816  0.47787553     1.01800
O623        O  0.26659089  0.08440508  0.48782653    -0.78700
O624        O  0.29975159  0.10913997  0.48031418    -0.78900
C625        C  0.30504291  0.12682116  0.47423183     1.01700
O626        O  0.29738838  0.14288543  0.53097794    -0.86200
O627        O  0.25905814  0.15619107  0.52887539    -0.83300
C628        C  0.24903942  0.14553822  0.54193922     0.97300
O629        O  0.24548463  0.12672073  0.53888596    -0.83300
O630        O  0.24421019  0.08866889  0.52021251    -0.85900
C631        C  0.25640694  0.08129359  0.53284109     1.01700
O632        O  0.27488473  0.08685349  0.53204765    -0.78700
O633        O  0.30801758  0.11143090  0.52605932    -0.78900
C634        C  0.30749158  0.12761977  0.53716751     1.01700
Cr635      Cr  0.27915142  0.14677257  0.50693870     1.93700
Cr636      Cr  0.24377080  0.11707916  0.51063193     1.93200
Cr637      Cr  0.28653902  0.09958607  0.50654941     1.39100
O638        O  0.27031253  0.12107362  0.50807488    -1.24000
O639        O  0.09109903  0.31703260  0.47930092    -0.86200
O640        O  0.06316848  0.28620635  0.48327633    -0.83300
C641        C  0.06796896  0.27261856  0.47001267     0.97300
O642        O  0.08539423  0.26445332  0.47067947    -0.83300
O643        O  0.12252922  0.25129578  0.48559198    -0.85900
C644        C  0.13399714  0.26221234  0.47466720     1.01800
O645        O  0.13499431  0.28116230  0.47749886    -0.78700
O646        O  0.12332362  0.31920325  0.48803032    -0.78900
C647        C  0.10908768  0.32302365  0.47523258     1.01700
O648        O  0.09410081  0.32111047  0.52483765    -0.86200
O649        O  0.06847250  0.28664448  0.52768660    -0.83300
C650        C  0.06267202  0.26810785  0.52575085     0.97300
O651        O  0.06821303  0.25835105  0.51011321    -0.83300
O652        O  0.10586371  0.25160559  0.52499254    -0.85900
C653        C  0.12432697  0.25393133  0.52967242     1.01700
O654        O  0.13561260  0.26731200  0.52073058    -0.78700
O655        O  0.12266132  0.30532008  0.53169451    -0.78900
C656        C  0.10897076  0.31776991  0.53700890     1.01700
Cr657      Cr  0.08074738  0.30193642  0.50375153     1.93700
Cr658      Cr  0.09598201  0.25847811  0.49801697     1.93200
Cr659      Cr  0.12725382  0.29284242  0.50441819     1.39100
O660        O  0.10142469  0.28462679  0.50224455    -1.24000
O661        O  0.31871702  0.14359818  0.63718622    -0.86200
O662        O  0.29617508  0.16044409  0.67016594    -0.83300
C663        C  0.27952120  0.14998099  0.67233708     0.97300
O664        O  0.28038533  0.13152078  0.67749902    -0.83300
O665        O  0.29378790  0.09432726  0.68894262    -0.85900
C666        C  0.29112737  0.08740243  0.67122846     1.01800
O667        O  0.30347451  0.09205857  0.65700502    -0.78700
O668        O  0.33377274  0.11372572  0.63559143    -0.78900
C669        C  0.32557409  0.12873526  0.62646008     1.01700
O670        O  0.35673722  0.14399669  0.66124135    -0.86200
O671        O  0.33517297  0.15815116  0.69568204    -0.83300
C672        C  0.32270322  0.15745027  0.71060892     0.97300
O673        O  0.30526613  0.15033401  0.70718814    -0.83300
O674        O  0.32342210  0.11265013  0.71383602    -0.85900
C675        C  0.33057197  0.09512899  0.71014231     1.01700
O676        O  0.33145019  0.08834784  0.69177201    -0.78700
O677        O  0.35928863  0.11199719  0.67142350    -0.78900
C678        C  0.36777056  0.12856927  0.66610390     1.01700
Cr679      Cr  0.32625604  0.15017118  0.66665366     1.93700
Cr680      Cr  0.30212040  0.12251916  0.69540393     1.93200
Cr681      Cr  0.33115840  0.10310845  0.66459079     1.39100
O682        O  0.32005322  0.12531829  0.67521275    -1.24000
O683        O  0.12430336  0.36907674  0.65959610    -0.86200
O684        O  0.13811014  0.34929769  0.69474971    -0.83300
C685        C  0.13718413  0.33729007  0.70997988     0.97300
O686        O  0.13055892  0.31935302  0.70744352    -0.83300
O687        O  0.09029219  0.33100279  0.71044942    -0.85900
C688        C  0.07249831  0.33573572  0.70501341     1.01800
O689        O  0.06835154  0.33827342  0.68624645    -0.78700
O690        O  0.09256334  0.37013962  0.67080379    -0.78900
C691        C  0.10889637  0.37943955  0.66583220     1.01700
O692        O  0.12791285  0.33029942  0.63635448    -0.86200
O693        O  0.14616125  0.31140717  0.67128114    -0.83300
C694        C  0.13757718  0.29385207  0.67301930     0.97300
O695        O  0.11859761  0.29270071  0.67485044    -0.83300
O696        O  0.07920145  0.30053265  0.68207176    -0.85900
C697        C  0.07191552  0.30043864  0.66427471     1.01700
O698        O  0.07720839  0.31397335  0.65139714    -0.78700
O699        O  0.09894925  0.34679722  0.63395115    -0.78900
C700        C  0.11334487  0.33707156  0.62532224     1.01700
Cr701      Cr  0.13263254  0.33945664  0.66582349     1.93700
Cr702      Cr  0.10504548  0.31239745  0.69226677     1.93200
Cr703      Cr  0.08592486  0.34166560  0.66140342     1.39100
O704        O  0.10785220  0.33138647  0.67315986    -1.24000
O705        O  0.14437128  0.13410565  0.65376217    -0.86200
O706        O  0.17967164  0.15802678  0.66281519    -0.83300
C707        C  0.19364701  0.17146808  0.66006845     0.97300
O708        O  0.18846406  0.18838195  0.65268362    -0.83300
O709        O  0.19076214  0.17186651  0.61458978    -0.85900
C710        C  0.18639290  0.16314368  0.59806460     1.01800
O711        O  0.16795042  0.15899105  0.59341913    -0.78700
O712        O  0.15390672  0.13067022  0.62175085    -0.78900
C713        C  0.14969297  0.12256629  0.63881315     1.01700
O714        O  0.11925850  0.17161803  0.65485337    -0.86200
O715        O  0.15361122  0.19461632  0.66906028    -0.83300
C716        C  0.15336608  0.21131954  0.65883853     0.97300
O717        O  0.15343515  0.21051237  0.63968191    -0.83300
O718        O  0.16044641  0.19902725  0.60052039    -0.85900
C719        C  0.14258245  0.19716862  0.59370882     1.01700
O720        O  0.13118991  0.18271834  0.59975432    -0.78700
O721        O  0.11557720  0.15366129  0.62632127    -0.78900
C722        C  0.10775419  0.16418982  0.64083530     1.01700
Cr723      Cr  0.14944221  0.16491673  0.65852039     1.93700
Cr724      Cr  0.17189928  0.19094085  0.62725845     1.93200
Cr725      Cr  0.14297440  0.15737756  0.61198819     1.39100
O726        O  0.15450291  0.17097734  0.63253316    -1.24000
O727        O  0.35364830  0.34167529  0.85512780    -0.86200
O728        O  0.32868910  0.30762377  0.84394961    -0.83300
C729        C  0.31510752  0.29379555  0.84636454     0.97300
O730        O  0.29833949  0.29891905  0.85419532    -0.83300
O731        O  0.31477013  0.29555091  0.89290562    -0.85900
C732        C  0.32231263  0.30013973  0.91001696     1.01800
O733        O  0.32617047  0.31880095  0.91453791    -0.78700
O734        O  0.35609468  0.33259074  0.88748386    -0.78900
C735        C  0.36475490  0.33685500  0.87066724     1.01700
O736        O  0.31625610  0.36784142  0.85377818    -0.86200
O737        O  0.29217809  0.33482881  0.83888499    -0.83300
C738        C  0.27540801  0.33516943  0.84932718     0.97300
O739        O  0.27631104  0.33363557  0.86837871    -0.83300
O740        O  0.28787472  0.32662548  0.90688417    -0.85900
C741        C  0.28890542  0.34509810  0.91239921     1.01700
O742        O  0.30327418  0.35630517  0.90603440    -0.78700
O743        O  0.33441964  0.37084682  0.88193388    -0.78900
C744        C  0.32382907  0.37903873  0.86790623     1.01700
Cr745      Cr  0.32242777  0.33771854  0.84938432     1.93700
Cr746      Cr  0.29591943  0.31489194  0.88015151     1.93200
Cr747      Cr  0.32910139  0.34373739  0.89593363     1.39100
O748        O  0.31612936  0.33213597  0.87510105    -1.24000
O749        O  0.11567188  0.35852543  0.83781226    -0.86200
O750        O  0.14711438  0.34591208  0.81151046    -0.83300
C751        C  0.14614710  0.35699179  0.79537744     0.97300
O752        O  0.14982757  0.37597163  0.79623452    -0.83300
O753        O  0.15809830  0.41462085  0.81110382    -0.85900
C754        C  0.13987644  0.42058630  0.81192217     1.01800
O755        O  0.12803139  0.41331049  0.82551222    -0.78700
O756        O  0.11295047  0.38676453  0.85579256    -0.78900
C757        C  0.10452193  0.37222344  0.84612393     1.01700
O758        O  0.14420217  0.35770136  0.87326752    -0.86200
O759        O  0.17646725  0.34816703  0.84614326    -0.83300
C760        C  0.18963157  0.35059449  0.83192168     0.97300
O761        O  0.18429079  0.36075023  0.81661382    -0.83300
O762        O  0.18802706  0.39805429  0.83689996    -0.85900
C763        C  0.18338666  0.41441127  0.84612426     1.01700
O764        O  0.16475617  0.41840960  0.84966133    -0.78700
O765        O  0.15078072  0.39060907  0.87756647    -0.78900
C766        C  0.14942592  0.37269554  0.88480919     1.01700
Cr767      Cr  0.14612459  0.35435224  0.84193028     1.93700
Cr768      Cr  0.16865348  0.38679645  0.81691298     1.93200
Cr769      Cr  0.13988115  0.40065868  0.85105630     1.39100
O770        O  0.15133774  0.38048960  0.83683062    -1.24000
O771        O  0.34810818  0.17112658  0.87132951    -0.86200
O772        O  0.33128752  0.19247375  0.83770370    -0.83300
C773        C  0.34112349  0.20950484  0.83643193     0.97300
O774        O  0.36004279  0.20940979  0.83323725    -0.83300
O775        O  0.39859452  0.19717425  0.82395130    -0.85900
C776        C  0.40528335  0.19741923  0.84202136     1.01800
O777        O  0.39995000  0.18374966  0.85454375    -0.78700
O778        O  0.37678939  0.15386682  0.87328834    -0.78900
C779        C  0.36275861  0.16413283  0.88210454     1.01700
O780        O  0.34816502  0.13244309  0.84754261    -0.86200
O781        O  0.33532020  0.15423937  0.81264529    -0.83300
C782        C  0.33646986  0.16689730  0.79791255     0.97300
O783        O  0.34405981  0.18432475  0.80125444    -0.83300
O784        O  0.38205369  0.16846367  0.79585093    -0.85900
C785        C  0.39894777  0.16039944  0.79983129     1.01700
O786        O  0.40483137  0.15817365  0.81830196    -0.78700
O787        O  0.37934546  0.12969200  0.83561657    -0.78900
C788        C  0.36300238  0.12118072  0.84142830     1.01700
Cr789      Cr  0.34217407  0.16297419  0.84185243     1.93700
Cr790      Cr  0.37088419  0.18840734  0.81504604     1.93200
Cr791      Cr  0.38868516  0.15717992  0.84472113     1.39100
O792        O  0.36723670  0.16940717  0.83407153    -1.24000
O793        O  0.29152721  0.47356047  0.86176008    -0.86200
O794        O  0.25441523  0.48735113  0.84943486    -0.83300
C795        C  0.24249024  0.47606306  0.85976801     0.97300
O796        O  0.24198540  0.47700479  0.87898722    -0.83300
O797        O  0.24896715  0.48787358  0.91879556    -0.85900
C798        C  0.26070068  0.47342366  0.92333062     1.01800
O799        O  0.27887500  0.47376478  0.91675560    -0.78700
O800        O  0.30969341  0.47937512  0.88940646    -0.78900
C801        C  0.30357608  0.46706305  0.87538891     1.01700
O802        O  0.30651148  0.51703645  0.86341934    -0.86200
O803        O  0.26716594  0.52926020  0.85552396    -0.83300
C804        C  0.24820201  0.53143315  0.85818189     0.97300
O805        O  0.23819064  0.51849141  0.86828533    -0.83300
O806        O  0.25087587  0.52907150  0.90622805    -0.85900
C807        C  0.26128075  0.53017815  0.92231938     1.01700
O808        O  0.27610456  0.51789738  0.92554338    -0.78700
O809        O  0.30512294  0.52525763  0.89587018    -0.78900
C810        C  0.30999229  0.52992087  0.87765513     1.01700
Cr811      Cr  0.27983124  0.50175345  0.85940997     1.93700
Cr812      Cr  0.24697752  0.50293648  0.89256032     1.93200
Cr813      Cr  0.29154683  0.49933485  0.90542647     1.39100
O814        O  0.27295004  0.50148327  0.88581654    -1.24000
O815        O  0.30872427  0.89486122  0.48736265    -0.86200
O816        O  0.27809143  0.92305293  0.47956851    -0.83300
C817        C  0.26031722  0.93076781  0.47969967     0.97300
O818        O  0.24880553  0.92733658  0.49464178    -0.83300
O819        O  0.24122444  0.89031279  0.47882503    -0.85900
C820        C  0.24016026  0.87138182  0.47630816     1.01800
O821        O  0.25081145  0.85904619  0.48708623    -0.78700
O822        O  0.29097784  0.86741774  0.48003660    -0.78900
C823        C  0.30461272  0.88016921  0.47501106     1.01700
O824        O  0.30033906  0.90024468  0.53273285    -0.86200
O825        O  0.27250857  0.93056251  0.52429047    -0.83300
C826        C  0.25680549  0.92693039  0.53554746     0.97300
O827        O  0.24731097  0.91023021  0.53394924    -0.83300
O828        O  0.23204637  0.87465482  0.51770252    -0.85900
C829        C  0.23961459  0.86300081  0.53086982     1.01700
O830        O  0.25864548  0.86020921  0.53108712    -0.78700
O831        O  0.29928552  0.86724164  0.52557097    -0.78900
C832        C  0.30319491  0.88179069  0.53819683     1.01700
Cr833      Cr  0.28905417  0.91082659  0.50603635     1.93700
Cr834      Cr  0.24420806  0.89997436  0.50636810     1.93200
Cr835      Cr  0.27497943  0.86526710  0.50589474     1.39100
O836        O  0.26974050  0.89186886  0.50624095    -1.24000
O837        O  0.33144304  0.80615032  0.83978492    -0.86200
O838        O  0.34393770  0.83092647  0.87267673    -0.83300
C839        C  0.35882998  0.83587823  0.88427509     0.97300
O840        O  0.37509117  0.84329206  0.87651717    -0.83300
O841        O  0.39884479  0.81544237  0.85467097    -0.85900
C842        C  0.40501235  0.80337891  0.84077074     1.01800
O843        O  0.39878258  0.80549240  0.82287974    -0.78700
O844        O  0.36092897  0.79115308  0.83297390    -0.78900
C845        C  0.34264749  0.78994509  0.83893069     1.01700
O846        O  0.33406832  0.84402463  0.81233467    -0.86200
O847        O  0.34481776  0.86767766  0.84653660    -0.83300
C848        C  0.36033511  0.87939779  0.84401998     0.97300
O849        O  0.37782284  0.87139257  0.84182971    -0.83300
O850        O  0.40347845  0.84460286  0.82172305    -0.85900
C851        C  0.39904060  0.84270689  0.80278897     1.01700
O852        O  0.38214964  0.83475318  0.79729386    -0.78700
O853        O  0.34371783  0.81445274  0.80236870    -0.78900
C854        C  0.33568256  0.83105839  0.79787468     1.01700
Cr855      Cr  0.34026541  0.83677656  0.84223243     1.93700
Cr856      Cr  0.38708631  0.84287209  0.84783839     1.93200
Cr857      Cr  0.37081759  0.81315530  0.81546812     1.39100
O858        O  0.36600586  0.83118069  0.83554355    -1.24000
O859        O  0.32296629  0.62914482  0.85744924    -0.86200
O860        O  0.29774903  0.66010610  0.84265214    -0.83300
C861        C  0.28135247  0.66199630  0.85358027     0.97300
O862        O  0.28182415  0.67080970  0.87077569    -0.83300
O863        O  0.29490110  0.68474109  0.90781032    -0.85900
C864        C  0.29146834  0.66790432  0.91608621     1.01800
O865        O  0.30235013  0.65252433  0.91140757    -0.78700
O866        O  0.32955298  0.62724583  0.89042834    -0.78900
C867        C  0.32552715  0.61849743  0.87352516     1.01700
O868        O  0.35846557  0.65588999  0.85813571    -0.86200
O869        O  0.33602082  0.68839108  0.84407732    -0.83300
C870        C  0.32338326  0.70297146  0.84461672     0.97300
O871        O  0.30604841  0.69877204  0.85116921    -0.83300
O872        O  0.32586536  0.70662503  0.88912044    -0.85900
C873        C  0.33317498  0.70250214  0.90657972     1.01700
O874        O  0.33359340  0.68412575  0.91319474    -0.78700
O875        O  0.36014930  0.65962129  0.89152961    -0.78900
C876        C  0.36912380  0.65775975  0.87436392     1.01700
Cr877      Cr  0.32811606  0.65914982  0.85213359     1.93700
Cr878      Cr  0.30376791  0.68856160  0.87937065     1.93200
Cr879      Cr  0.33071347  0.65658303  0.89982596     1.39100
O880        O  0.32108391  0.66754999  0.87711314    -1.24000
O881        O  0.14107598  0.65594039  0.81386055    -0.86200
O882        O  0.11889126  0.64435665  0.84856306    -0.83300
C883        C  0.10711516  0.62923020  0.84406635     0.97300
O884        O  0.11507567  0.61211237  0.83963617    -0.83300
O885        O  0.14236110  0.58598958  0.82083741    -0.85900
C886        C  0.14385014  0.59163261  0.80221228     1.01800
O887        O  0.15163983  0.60865278  0.79772024    -0.78700
O888        O  0.17046338  0.64628564  0.80201709    -0.78900
C889        C  0.15334953  0.65423566  0.79891123     1.01700
O890        O  0.18006006  0.65847245  0.83888544    -0.86200
O891        O  0.15763819  0.64400683  0.87234052    -0.83300
C892        C  0.15096002  0.62968240  0.88374702     0.97300
O893        O  0.14123093  0.61487205  0.87558844    -0.83300
O894        O  0.17001594  0.59055638  0.85523488    -0.85900
C895        C  0.18260139  0.58465382  0.84167376     1.01700
O896        O  0.18096682  0.59107035  0.82361776    -0.78700
O897        O  0.19546214  0.62907138  0.83204320    -0.78900
C898        C  0.19639324  0.64757219  0.83728127     1.01700
Cr899      Cr  0.14979288  0.64915296  0.84287452     1.93700
Cr900      Cr  0.14302594  0.60247778  0.84707018     1.93200
Cr901      Cr  0.17315034  0.61916618  0.81536993     1.39100
O902        O  0.15525290  0.62365156  0.83545051    -1.24000
O903        O  0.29552156  0.84247553  0.67020378    -0.86200
O904        O  0.31995707  0.85583695  0.63697530    -0.83300
C905        C  0.32625995  0.87016761  0.62528622     0.97300
O906        O  0.33527639  0.88579955  0.63284401    -0.83300
O907        O  0.30602676  0.91111845  0.65017149    -0.85900
C908        C  0.29222835  0.91710740  0.66234517     1.01800
O909        O  0.29199598  0.91077867  0.68047320    -0.78700
O910        O  0.27951502  0.87192549  0.67224194    -0.78900
C911        C  0.27882653  0.85281746  0.67036081     1.01700
O912        O  0.33175605  0.84766622  0.69755432    -0.86200
O913        O  0.35645204  0.85746461  0.66359436    -0.83300
C914        C  0.36778281  0.87301584  0.66745402     0.97300
O915        O  0.35993252  0.89056822  0.66970156    -0.83300
O916        O  0.33129428  0.91723602  0.68678185    -0.85900
C917        C  0.32744728  0.91235229  0.70538962     1.01700
O918        O  0.31944970  0.89534819  0.70954145    -0.78700
O919        O  0.30146854  0.85746162  0.70614965    -0.78900
C920        C  0.31810030  0.84970721  0.71133557     1.01700
Cr921      Cr  0.32558963  0.85254819  0.66733062     1.93700
Cr922      Cr  0.33225357  0.89947738  0.66077275     1.93200
Cr923      Cr  0.29975904  0.88348528  0.69060482     1.39100
O924        O  0.31943135  0.87848224  0.67258029    -1.24000
O925        O  0.11730010  0.84447406  0.64987821    -0.86200
O926        O  0.14103481  0.80887072  0.65861826    -0.83300
C927        C  0.15457378  0.79508110  0.65574905     0.97300
O928        O  0.17144222  0.80054061  0.64834385    -0.83300
O929        O  0.15540390  0.79993236  0.60983528    -0.85900
C930        C  0.14880613  0.80497437  0.59259274     1.01800
O931        O  0.14466380  0.82376269  0.58888107    -0.78700
O932        O  0.11469927  0.83629030  0.61737066    -0.78900
C933        C  0.10607904  0.83992021  0.63437986     1.01700
O934        O  0.15503757  0.86961807  0.65328900    -0.86200
O935        O  0.17787828  0.83496327  0.66624934    -0.83300
C936        C  0.19462901  0.83589217  0.65593339     0.97300
O937        O  0.19369394  0.83630795  0.63687123    -0.83300
O938        O  0.18284518  0.83150907  0.59828976    -0.85900
C939        C  0.18198885  0.85006167  0.59343956     1.01700
O940        O  0.16747653  0.86112024  0.59959710    -0.78700
O941        O  0.13714020  0.87465494  0.62520253    -0.78900
C942        C  0.14784733  0.88186385  0.63992039     1.01700
Cr943      Cr  0.14805716  0.83932161  0.65552037     1.93700
Cr944      Cr  0.17433983  0.81826739  0.62377298     1.93200
Cr945      Cr  0.14171423  0.84799534  0.60928803     1.39100
O946        O  0.15446339  0.83532775  0.62954029    -1.24000
O947        O  0.14671707  0.66393546  0.69645393    -0.86200
O948        O  0.12724416  0.63381585  0.67247199    -0.83300
C949        C  0.11100355  0.62444721  0.66685239     0.97300
O950        O  0.09596398  0.63481846  0.65997012    -0.83300
O951        O  0.07559709  0.65591334  0.69120950    -0.85900
C952        C  0.07264358  0.66875620  0.70547362     1.01800
O953        O  0.08186347  0.68554973  0.70541774    -0.78700
O954        O  0.11893963  0.67064648  0.71426880    -0.78900
C955        C  0.13688872  0.66408794  0.71351511     1.01700
O956        O  0.14277147  0.69329978  0.66025218    -0.86200
O957        O  0.12717593  0.66076282  0.63674951    -0.83300
C958        C  0.11209877  0.66725236  0.62628405     0.97300
O959        O  0.09588959  0.67265140  0.63557088    -0.83300
O960        O  0.07370193  0.69276702  0.66652308    -0.85900
C961        C  0.08097296  0.71057350  0.67041481     1.01700
O962        O  0.09887029  0.71274272  0.67728734    -0.78700
O963        O  0.13763798  0.70160602  0.69145916    -0.78900
C964        C  0.14300932  0.70713008  0.67402485     1.01700
Cr965      Cr  0.13449412  0.66370612  0.66707530     1.93700
Cr966      Cr  0.08709012  0.66459531  0.66401520     1.93200
Cr967      Cr  0.10951933  0.69126889  0.69543913     1.39100
O968        O  0.11022937  0.67283795  0.67532333    -1.24000
O969        O  0.46599194  0.86753068  0.32035570    -0.86200
O970        O  0.46025600  0.86512170  0.27901513    -0.83300
C971        C  0.46078788  0.86962936  0.26024095     0.97300
O972        O  0.47522391  0.88031002  0.25372311    -0.83300
O973        O  0.45615297  0.91340313  0.27256246    -0.85900
C974        C  0.45256584  0.92816519  0.28458851     1.01800
O975        O  0.46453920  0.93172391  0.29977631    -0.78700
O976        O  0.46017772  0.90011068  0.32598790    -0.78900
C977        C  0.45446600  0.88158587  0.32740705     1.01700
O978        O  0.51099418  0.86896460  0.31271435    -0.86200
O979        O  0.50503821  0.86482132  0.27211711    -0.83300
C980        C  0.51707653  0.87791891  0.26387852     0.97300
O981        O  0.51289866  0.89675119  0.26460457    -0.83300
O982        O  0.49371275  0.93305736  0.27495598    -0.85900
C983        C  0.50958439  0.93583479  0.28511431     1.01700
O984        O  0.51059665  0.92714076  0.30238269    -0.78700
O985        O  0.50565801  0.89666367  0.33102352    -0.78900
C986        C  0.51697371  0.88144093  0.32630724     1.01700
Cr987      Cr  0.48547643  0.86836477  0.29609338     1.93700
Cr988      Cr  0.48453636  0.90518308  0.26815901     1.93200
Cr989      Cr  0.48528075  0.91273010  0.31375453     1.39100
O990        O  0.48506827  0.89523111  0.29311824    -1.24000
O991        O  0.85097465  0.52028246  0.32481416    -0.86200
O992        O  0.84685135  0.52780051  0.28357675    -0.83300
C993        C  0.85154248  0.52789456  0.26478806     0.97300
O994        O  0.86171323  0.51336703  0.25765960    -0.83300
O995        O  0.89710693  0.52689844  0.27603047    -0.85900
C996        C  0.91338353  0.52733289  0.28614021     1.01800
O997        O  0.91562315  0.51545017  0.30152193    -0.78700
O998        O  0.88397573  0.52582660  0.32710235    -0.78900
C999        C  0.86581912  0.53210704  0.32966620     1.01700
O1000       O  0.84864565  0.47532291  0.31525249    -0.86200
O1001       O  0.84249365  0.48359254  0.27482856    -0.83300
C1002       C  0.85428319  0.47194384  0.26431469     0.97300
O1003       O  0.87339763  0.47335122  0.26561776    -0.83300
O1004       O  0.91091933  0.48636073  0.27724855    -0.85900
C1005       C  0.91289191  0.47122413  0.28868255     1.01700
O1006       O  0.90437719  0.47141351  0.30612011    -0.78700
O1007       O  0.87484544  0.48168986  0.33500365    -0.78900
C1008       C  0.86023341  0.46984015  0.32969177     1.01700
Cr1009     Cr  0.84892459  0.50161646  0.29971808     1.93700
Cr1010     Cr  0.88515734  0.50007277  0.27091534     1.93200
Cr1011     Cr  0.89337859  0.49866333  0.31641144     1.39100
O1012       O  0.87563121  0.49997294  0.29595195    -1.24000
O1013       O  0.67746480  0.84360623  0.34058346    -0.86200
O1014       O  0.65215029  0.85723823  0.37178850    -0.83300
C1015       C  0.64570838  0.87139078  0.38350347     0.97300
O1016       O  0.63738949  0.88705805  0.37558105    -0.83300
O1017       O  0.66876739  0.90948439  0.35900201    -0.85900
C1018       C  0.68262437  0.91623127  0.34734737     1.01800
O1019       O  0.68227563  0.91147050  0.32866359    -0.78700
O1020       O  0.69401135  0.87274324  0.33589253    -0.78900
C1021       C  0.69389286  0.85453142  0.34186968     1.01700
O1022       O  0.64100672  0.84809526  0.31161212    -0.86200
O1023       O  0.61629525  0.85962011  0.34504418    -0.83300
C1024       C  0.60563170  0.87558896  0.34107885     0.97300
O1025       O  0.61464154  0.89238213  0.33756348    -0.83300
O1026       O  0.64477012  0.91796413  0.32239869    -0.85900
C1027       C  0.64863951  0.91404870  0.30363334     1.01700
O1028       O  0.65459172  0.89641141  0.29885610    -0.78700
O1029       O  0.67137142  0.85774705  0.30231856    -0.78900
C1030       C  0.65434199  0.85012685  0.29761248     1.01700
Cr1031     Cr  0.64718215  0.85362142  0.34165551     1.93700
Cr1032     Cr  0.64212749  0.90018756  0.34774686     1.93200
Cr1033     Cr  0.67391668  0.88405668  0.31774278     1.39100
O1034       O  0.65416555  0.87914200  0.33591070    -1.24000
O1035       O  0.62788205  0.87008428  0.15979194    -0.86200
O1036       O  0.64186909  0.84995777  0.19508448    -0.83300
C1037       C  0.64125230  0.83809746  0.21045816     0.97300
O1038       O  0.63336389  0.82070118  0.20822052    -0.83300
O1039       O  0.59567539  0.83892113  0.21423520    -0.85900
C1040       C  0.57902835  0.84758976  0.20991742     1.01800
O1041       O  0.57199865  0.84738185  0.19174073    -0.78700
O1042       O  0.59637816  0.87353423  0.17067795    -0.78900
C1043       C  0.61283500  0.88161052  0.16463440     1.01700
O1044       O  0.62702191  0.83088520  0.13758273    -0.86200
O1045       O  0.64396562  0.81023203  0.17131845    -0.83300
C1046       C  0.63375111  0.79353374  0.17378661     0.97300
O1047       O  0.61527170  0.79432124  0.17918418    -0.83300
O1048       O  0.57744049  0.80847619  0.18993274    -0.85900
C1049       C  0.57064202  0.80558263  0.17219895     1.01700
O1050       O  0.57536736  0.81784847  0.15798838    -0.78700
O1051       O  0.59765309  0.84678929  0.13585773    -0.78900
C1052       C  0.61219892  0.83757300  0.12690496     1.01700
Cr1053     Cr  0.63369295  0.83988719  0.16659914     1.93700
Cr1054     Cr  0.60572759  0.81693738  0.19633760     1.93200
Cr1055     Cr  0.58689982  0.84545891  0.16476529     1.39100
O1056       O  0.60881849  0.83425105  0.17563863    -1.24000
O1057       O  0.85539121  0.83931911  0.36433899    -0.86200
O1058       O  0.82984822  0.80760576  0.35144830    -0.83300
C1059       C  0.81587294  0.79409783  0.35224099     0.97300
O1060       O  0.79931725  0.79941195  0.36004085    -0.83300
O1061       O  0.81885152  0.79130122  0.39732774    -0.85900
C1062       C  0.82674547  0.79444393  0.41467910     1.01800
O1063       O  0.82978412  0.81276790  0.42118219    -0.78700
O1064       O  0.85769849  0.83340635  0.39752044    -0.78900
C1065       C  0.86609320  0.83511672  0.38015663     1.01700
O1066       O  0.81997432  0.86784054  0.36476627    -0.86200
O1067       O  0.79403210  0.83728182  0.35012487    -0.83300
C1068       C  0.77773984  0.83707384  0.36125798     0.97300
O1069       O  0.77807942  0.83058984  0.37938020    -0.83300
O1070       O  0.79135219  0.81771142  0.41668362    -0.85900
C1071       C  0.79009715  0.83528089  0.42433867     1.01700
O1072       O  0.80267612  0.84887890  0.41865281    -0.78700
O1073       O  0.83238459  0.86932108  0.39582456    -0.78900
C1074       C  0.82548382  0.87850474  0.38017827     1.01700
Cr1075     Cr  0.82439068  0.83748495  0.35926470     1.93700
Cr1076     Cr  0.79854468  0.81120563  0.38800288     1.93200
Cr1077     Cr  0.82974683  0.84042056  0.40660593     1.39100
O1078       O  0.81786930  0.83007113  0.38456605    -1.24000
O1079       O  0.84687625  0.67005698  0.37412687    -0.86200
O1080       O  0.83095503  0.69253508  0.33998706    -0.83300
C1081       C  0.84033699  0.70979121  0.33973696     0.97300
O1082       O  0.85943870  0.70998124  0.33840271    -0.83300
O1083       O  0.89900840  0.69912406  0.33322338    -0.85900
C1084       C  0.90428324  0.69789307  0.35174254     1.01800
O1085       O  0.89872605  0.68274226  0.36244707    -0.78700
O1086       O  0.87400311  0.65076209  0.37582565    -0.78900
C1087       C  0.86055167  0.66132680  0.38496582     1.01700
O1088       O  0.84841397  0.63264371  0.34861819    -0.86200
O1089       O  0.83787765  0.65603190  0.31387077    -0.83300
C1090       C  0.84018019  0.66915982  0.29960772     0.97300
O1091       O  0.84767171  0.68627951  0.30419117    -0.83300
O1092       O  0.88652361  0.67126151  0.30200239    -0.85900
C1093       C  0.90361473  0.66387698  0.30647923     1.01700
O1094       O  0.90797710  0.66004958  0.32506546    -0.78700
O1095       O  0.88019001  0.62976303  0.33788887    -0.78900
C1096       C  0.86339019  0.62137474  0.34290363     1.01700
Cr1097     Cr  0.84253776  0.66324979  0.34387260     1.93700
Cr1098     Cr  0.87286138  0.69008442  0.32075291     1.93200
Cr1099     Cr  0.88875653  0.65680360  0.34944534     1.39100
O1100       O  0.86804410  0.66995714  0.33812412    -1.24000
O1101       O  0.81897730  0.64523107  0.13839881    -0.86200
O1102       O  0.79560686  0.65857371  0.17250937    -0.83300
C1103       C  0.77901742  0.64792154  0.17285814     0.97300
O1104       O  0.78000402  0.62893714  0.17535788    -0.83300
O1105       O  0.79302901  0.59022003  0.17989425    -0.85900
C1106       C  0.79382466  0.58478110  0.16136568     1.01800
O1107       O  0.80731626  0.59197845  0.14943753    -0.78700
O1108       O  0.83836894  0.61829975  0.13519041    -0.78900
C1109       C  0.82747024  0.63192199  0.12689333     1.01700
O1110       O  0.85689272  0.64429531  0.16425809    -0.86200
O1111       O  0.83326812  0.65349612  0.19835842    -0.83300
C1112       C  0.82099161  0.65037186  0.21309777     0.97300
O1113       O  0.80405467  0.64236560  0.20882246    -0.83300
O1114       O  0.82110434  0.60369166  0.21005593    -0.85900
C1115       C  0.82884510  0.58707588  0.20403854     1.01700
O1116       O  0.83129005  0.58340527  0.18507507    -0.78700
O1117       O  0.85977580  0.61173291  0.17247298    -0.78900
C1118       C  0.86790469  0.62914638  0.17005359     1.01700
Cr1119     Cr  0.82576872  0.64887624  0.16861492     1.93700
Cr1120     Cr  0.80106324  0.61684820  0.19222204     1.93200
Cr1121     Cr  0.83322373  0.60287533  0.16131422     1.39100
O1122       O  0.82008429  0.62291912  0.17388145    -1.24000
O1123       O  0.64488444  0.63067307  0.15072597    -0.86200
O1124       O  0.67874669  0.65501751  0.16140508    -0.83300
C1125       C  0.69277913  0.66845763  0.15971123     0.97300
O1126       O  0.68754589  0.68521464  0.15241772    -0.83300
O1127       O  0.69143707  0.66437930  0.11520992    -0.85900
C1128       C  0.68700885  0.65688752  0.09791749     1.01800
O1129       O  0.66840705  0.65481213  0.09238378    -0.78700
O1130       O  0.64888159  0.62773183  0.11736663    -0.78900
C1131       C  0.64761190  0.61938444  0.13480168     1.01700
O1132       O  0.61777569  0.66698236  0.15257009    -0.86200
O1133       O  0.65120541  0.69256008  0.16496631    -0.83300
C1134       C  0.65248186  0.70910179  0.15414259     0.97300
O1135       O  0.65578005  0.70767123  0.13522125    -0.83300
O1136       O  0.66580516  0.69260477  0.09755982    -0.85900
C1137       C  0.64792812  0.69684409  0.09302594     1.01700
O1138       O  0.63417742  0.68410672  0.09804211    -0.78700
O1139       O  0.61411551  0.65505265  0.12143588    -0.78900
C1140       C  0.60602401  0.66162350  0.13785559     1.01700
Cr1141     Cr  0.64848296  0.66174090  0.15588610     1.93700
Cr1142     Cr  0.67371429  0.68604258  0.12551810     1.93200
Cr1143     Cr  0.64215797  0.65623034  0.10885932     1.39100
O1144       O  0.65434452  0.66769814  0.13021021    -1.24000
O1145       O  0.62345676  0.01830284  0.18062138    -0.86200
O1146       O  0.63880697  0.02918377  0.21737810    -0.83300
C1147       C  0.63933155  0.03135314  0.23645233     0.97300
O1148       O  0.63195784  0.01771541  0.24776028    -0.83300
O1149       O  0.59302182  0.03116046  0.24151011    -0.85900
C1150       C  0.57475458  0.03153474  0.23576588     1.01800
O1151       O  0.56870623  0.01859089  0.22234062    -0.78700
O1152       O  0.59206905  0.02639090  0.18857238    -0.78900
C1153       C  0.60881855  0.03119966  0.18009791     1.01700
O1154       O  0.62702784  0.97454864  0.19319226    -0.86200
O1155       O  0.64504420  0.98560680  0.22939598    -0.83300
C1156       C  0.63599036  0.97507818  0.24329133     0.97300
O1157       O  0.61729840  0.97728735  0.24683550    -0.83300
O1158       O  0.57858125  0.99011386  0.24713202    -0.85900
C1159       C  0.57109848  0.97593290  0.23634477     1.01700
O1160       O  0.57526223  0.97484284  0.21735675    -0.78700
O1161       O  0.59680279  0.98136630  0.18073905    -0.78900
C1162       C  0.61212917  0.96933669  0.18207850     1.01700
Cr1163     Cr  0.63198318  0.00178557  0.20571639     1.93700
Cr1164     Cr  0.60539400  0.00401731  0.24392501     1.93200
Cr1165     Cr  0.58479907  0.00033942  0.20276535     1.39100
O1166       O  0.60739091  0.00177959  0.21724815    -1.24000
O1167       O  0.62257572  0.18933628  0.98322589    -0.86200
O1168       O  0.63680966  0.22790714  0.97589309    -0.83300
C1169       C  0.63633285  0.24723511  0.97592732     0.97300
O1170       O  0.63241996  0.25604400  0.99240453    -0.83300
O1171       O  0.59193886  0.25206261  0.97969438    -0.85900
C1172       C  0.57388760  0.24543801  0.97845265     1.01800
O1173       O  0.56795412  0.23075308  0.98997983    -0.78700
O1174       O  0.59095557  0.19781039  0.97776108    -0.78900
C1175       C  0.60719208  0.18951561  0.97125590     1.01700
O1176       O  0.62855403  0.19668307  0.02812967    -0.86200
O1177       O  0.64653401  0.23378315  0.02028472    -0.83300
C1178       C  0.63849744  0.24606185  0.03331879     0.97300
O1179       O  0.61982352  0.25058271  0.03257440    -0.83300
O1180       O  0.57980309  0.25230811  0.02108137    -0.85900
C1181       C  0.57354104  0.24017085  0.03462708     1.01700
O1182       O  0.57762185  0.22130645  0.03294308    -0.78700
O1183       O  0.59757566  0.18584677  0.02173876    -0.78900
C1184       C  0.61327080  0.18590147  0.03338487     1.01700
Cr1185     Cr  0.63214405  0.21251640  0.00206821     1.93700
Cr1186     Cr  0.60611909  0.25096803  0.00625630     1.93200
Cr1187     Cr  0.58510369  0.20956253  0.00554436     1.39100
O1188       O  0.60776719  0.22409919  0.00482316    -1.24000
O1189       O  0.46911751  0.32547864  0.14587038    -0.86200
O1190       O  0.45729003  0.28638862  0.15349258    -0.83300
C1191       C  0.45540738  0.26738826  0.15108995     0.97300
O1192       O  0.46875956  0.25753016  0.14152534    -0.83300
O1193       O  0.45578380  0.27234340  0.10543686    -0.85900
C1194       C  0.45476830  0.28137694  0.08859451     1.01800
O1195       O  0.46789007  0.29535043  0.08407686    -0.78700
O1196       O  0.46270178  0.32492596  0.11304858    -0.78900
C1197       C  0.45701412  0.32916769  0.13109978     1.01700
O1198       O  0.51250656  0.31158528  0.14849959    -0.86200
O1199       O  0.50023998  0.27332435  0.15860478    -0.83300
C1200       C  0.51074721  0.26092684  0.14763402     0.97300
O1201       O  0.50884810  0.26032775  0.12838941    -0.83300
O1202       O  0.49589813  0.26861445  0.08896620    -0.85900
C1203       C  0.51195875  0.27860586  0.08558558     1.01700
O1204       O  0.51271597  0.29679344  0.09214520    -0.78700
O1205       O  0.50885659  0.32811361  0.11934086    -0.78900
C1206       C  0.51991638  0.32284858  0.13466054     1.01700
Cr1207     Cr  0.48483966  0.29905191  0.14982902     1.93700
Cr1208     Cr  0.48258189  0.26653861  0.11645232     1.93200
Cr1209     Cr  0.48787334  0.31058464  0.10356071     1.39100
O1210       O  0.48542918  0.29233290  0.12340214    -1.24000
O1211       O  0.50919055  0.14317599  0.31904983    -0.86200
O1212       O  0.51163375  0.15435446  0.27940320    -0.83300
C1213       C  0.52430717  0.14302457  0.26944705     0.97300
O1214       O  0.52077493  0.12417262  0.26694033    -0.83300
O1215       O  0.50051603  0.08714510  0.26475056    -0.85900
C1216       C  0.51302798  0.07984261  0.27708489     1.01800
O1217       O  0.51223979  0.08593280  0.29533869    -0.78700
O1218       O  0.50715772  0.11070694  0.32735873    -0.78900
C1219       C  0.51690993  0.12771289  0.32754643     1.01700
O1220       O  0.46374660  0.14264996  0.31753754    -0.86200
O1221       O  0.46560663  0.15284719  0.27771061    -0.83300
C1222       C  0.46919460  0.15172314  0.25879091     0.97300
O1223       O  0.48571176  0.14383014  0.25377331    -0.83300
O1224       O  0.46409844  0.10775708  0.26125672    -0.85900
C1225       C  0.45852286  0.09139952  0.26994961     1.01700
O1226       O  0.46751303  0.08490493  0.28624436    -0.78700
O1227       O  0.46106085  0.10905849  0.32012263    -0.78900
C1228       C  0.45358727  0.12679408  0.32255728     1.01700
Cr1229     Cr  0.48761561  0.14652609  0.29817170     1.93700
Cr1230     Cr  0.49251231  0.11610094  0.26365771     1.93200
Cr1231     Cr  0.48692883  0.09928212  0.30648041     1.39100
O1232       O  0.48884272  0.12063888  0.29000896    -1.24000
O1233       O  0.61939001  0.34106513  0.15362575    -0.86200
O1234       O  0.64300605  0.30760293  0.16575269    -0.83300
C1235       C  0.65540165  0.29289006  0.16289764     0.97300
O1236       O  0.67245647  0.29664765  0.15461652    -0.83300
O1237       O  0.65845257  0.29628237  0.11522178    -0.85900
C1238       C  0.65326371  0.30172928  0.09759002     1.01800
O1239       O  0.64967490  0.32064480  0.09428378    -0.78700
O1240       O  0.61856001  0.33227569  0.12089563    -0.78900
C1241       C  0.60930376  0.33550375  0.13760392     1.01700
O1242       O  0.65618609  0.36817751  0.15732906    -0.86200
O1243       O  0.67968738  0.33376848  0.17221808    -0.83300
C1244       C  0.69671135  0.33310201  0.16229744     0.97300
O1245       O  0.69654640  0.33157320  0.14331212    -0.83300
O1246       O  0.68636049  0.32781530  0.10455722    -0.85900
C1247       C  0.68579335  0.34676958  0.10101102     1.01700
O1248       O  0.67145646  0.35751180  0.10798674    -0.78700
O1249       O  0.63779288  0.37004446  0.12980353    -0.78900
C1250       C  0.64717458  0.37926094  0.14402306     1.01700
Cr1251     Cr  0.65006514  0.33744943  0.16080810     1.93700
Cr1252     Cr  0.67689843  0.31427319  0.12997603     1.93200
Cr1253     Cr  0.64525245  0.34422365  0.11462917     1.39100
O1254       O  0.65704518  0.33178238  0.13530682    -1.24000
O1255       O  0.65530563  0.14003896  0.37058025    -0.86200
O1256       O  0.67921794  0.15357135  0.33765336    -0.83300
C1257       C  0.69517743  0.14208838  0.33726014     0.97300
O1258       O  0.69399573  0.12372002  0.33171581    -0.83300
O1259       O  0.67937497  0.08633711  0.32303984    -0.85900
C1260       C  0.68092494  0.08086971  0.34136746     1.01800
O1261       O  0.66789498  0.08710165  0.35426876    -0.78700
O1262       O  0.63865688  0.11100476  0.37349681    -0.78900
C1263       C  0.64825746  0.12577140  0.38193428     1.01700
O1264       O  0.61796966  0.14033491  0.34522226    -0.86200
O1265       O  0.64152853  0.15154785  0.31043769    -0.83300
C1266       C  0.65441135  0.14945826  0.29586972     0.97300
O1267       O  0.67108078  0.14132110  0.30031979    -0.83300
O1268       O  0.65042090  0.10462941  0.29662239    -0.85900
C1269       C  0.64369670  0.08700388  0.30023465     1.01700
O1270       O  0.64110914  0.08109508  0.31872355    -0.78700
O1271       O  0.61329745  0.10773291  0.33741791    -0.78900
C1272       C  0.60595914  0.12525085  0.34133042     1.01700
Cr1273     Cr  0.64876654  0.14491047  0.34044646     1.93700
Cr1274     Cr  0.67218114  0.11437858  0.31428869     1.93200
Cr1275     Cr  0.64110196  0.09825107  0.34514572     1.39100
O1276       O  0.65383952  0.11929108  0.33366390    -1.24000
O1277       O  0.62617582  0.15665271  0.13229003    -0.86200
O1278       O  0.63877495  0.19105906  0.15469407    -0.83300
C1279       C  0.63659929  0.20610530  0.16689672     0.97300
O1280       O  0.62840308  0.20303518  0.18404498    -0.83300
O1281       O  0.58951711  0.20573035  0.16798975    -0.85900
C1282       C  0.57198182  0.20072226  0.16184978     1.01800
O1283       O  0.56770818  0.18189141  0.15933629    -0.78700
O1284       O  0.59424357  0.16655843  0.12963612    -0.78900
C1285       C  0.61112623  0.16226482  0.12103202     1.01700
O1286       O  0.62702673  0.13169335  0.17048431    -0.86200
O1287       O  0.64262376  0.16545854  0.19321642    -0.83300
C1288       C  0.63234546  0.16661030  0.21009017     0.97300
O1289       O  0.61368790  0.17071642  0.20942166    -0.83300
O1290       O  0.57566337  0.17791845  0.19692286    -0.85900
C1291       C  0.56983332  0.15968814  0.19820925     1.01700
O1292       O  0.57510440  0.14674462  0.18460275    -0.78700
O1293       O  0.59886678  0.12930568  0.15281934    -0.78900
C1294       C  0.61304822  0.12051701  0.16262373     1.01700
Cr1295     Cr  0.63212153  0.16165291  0.16311801     1.93700
Cr1296     Cr  0.60237879  0.18789241  0.18803811     1.93200
Cr1297     Cr  0.58557273  0.15688061  0.15739161     1.39100
O1298       O  0.60677241  0.16867978  0.16934130    -1.24000
O1299       O  0.83941654  0.36995458  0.34985021    -0.86200
O1300       O  0.82914761  0.34644835  0.31532287    -0.83300
C1301       C  0.83139436  0.33374348  0.30079009     0.97300
O1302       O  0.83920015  0.31680068  0.30500912    -0.83300
O1303       O  0.87528537  0.33774603  0.30064700    -0.85900
C1304       C  0.89209126  0.34597945  0.30464955     1.01800
O1305       O  0.89813242  0.34775540  0.32315249    -0.78700
O1306       O  0.87178711  0.37394555  0.34189848    -0.78900
C1307       C  0.85469328  0.38172828  0.34608915     1.01700
O1308       O  0.83995069  0.33266413  0.37455956    -0.86200
O1309       O  0.82758002  0.30769808  0.34199508    -0.83300
C1310       C  0.83916114  0.29166465  0.34086527     0.97300
O1311       O  0.85745254  0.29355988  0.33532622    -0.83300
O1312       O  0.89508400  0.30920985  0.32678482    -0.85900
C1313       C  0.90264531  0.30908474  0.34457326     1.01700
O1314       O  0.89534520  0.32075616  0.35820053    -0.78700
O1315       O  0.86975634  0.34822996  0.37832739    -0.78900
C1316       C  0.85426383  0.33918704  0.38602675     1.01700
Cr1317     Cr  0.83549792  0.33879547  0.34485931     1.93700
Cr1318     Cr  0.86638862  0.31578530  0.31843864     1.93200
Cr1319     Cr  0.88207240  0.34676244  0.34968908     1.39100
O1320       O  0.86126390  0.33368328  0.33830669    -1.24000
O1321       O  0.82034183  0.13060708  0.35722038    -0.86200
O1322       O  0.79578023  0.16121068  0.34017783    -0.83300
C1323       C  0.77963000  0.16001584  0.35120189     0.97300
O1324       O  0.77994299  0.16572100  0.36948723    -0.83300
O1325       O  0.79120918  0.17567427  0.40752367    -0.85900
C1326       C  0.79190780  0.15729196  0.41293200     1.01800
O1327       O  0.80691346  0.14634417  0.40751337    -0.78700
O1328       O  0.83911123  0.13096342  0.38468549    -0.78900
C1329       C  0.82917312  0.12074419  0.37149358     1.01700
O1330       O  0.85638640  0.15795182  0.35574955    -0.86200
O1331       O  0.83124964  0.19027700  0.34309795    -0.83300
C1332       C  0.81817309  0.20440993  0.34602893     0.97300
O1333       O  0.80111105  0.19955774  0.35334362    -0.83300
O1334       O  0.81658823  0.20670752  0.39235333    -0.85900
C1335       C  0.82297282  0.20275298  0.41008691     1.01700
O1336       O  0.82922398  0.18466839  0.41395244    -0.78700
O1337       O  0.85962735  0.16966424  0.38734386    -0.78900
C1338       C  0.86767893  0.16439712  0.37040992     1.01700
Cr1339     Cr  0.82556721  0.16060806  0.35050181     1.93700
Cr1340     Cr  0.79887426  0.18573402  0.38012174     1.93200
Cr1341     Cr  0.83285199  0.15873314  0.39694142     1.39100
O1342       O  0.81950553  0.16853744  0.37577404    -1.24000
O1343       O  0.85655216  0.35656034  0.17174142    -0.86200
O1344       O  0.82584481  0.34116436  0.19762989    -0.83300
C1345       C  0.82675071  0.35179442  0.21428227     0.97300
O1346       O  0.82238617  0.37053712  0.21404166    -0.83300
O1347       O  0.81172444  0.40882178  0.20203799    -0.85900
C1348       C  0.82991795  0.41480951  0.20201775     1.01800
O1349       O  0.84180254  0.40897835  0.18786694    -0.78700
O1350       O  0.85804338  0.38601406  0.15618351    -0.78900
C1351       C  0.86731884  0.37133486  0.16482119     1.01700
O1352       O  0.82804548  0.35735178  0.13608306    -0.86200
O1353       O  0.79562358  0.34493275  0.16275579    -0.83300
C1354       C  0.78276918  0.34644974  0.17742677     0.97300
O1355       O  0.78907641  0.35392008  0.19382369    -0.83300
O1356       O  0.78254643  0.39194507  0.17568673    -0.85900
C1357       C  0.78598202  0.40941173  0.16827892     1.01700
O1358       O  0.80421830  0.41520551  0.16436855    -0.78700
O1359       O  0.81942537  0.38975012  0.13435858    -0.78900
C1360       C  0.82281698  0.37294728  0.12531488     1.01700
Cr1361     Cr  0.82608465  0.35147897  0.16735488     1.93700
Cr1362     Cr  0.80262726  0.38096211  0.19476559     1.93200
Cr1363     Cr  0.83018771  0.39836861  0.16156202     1.39100
O1364       O  0.81986232  0.37685916  0.17430791    -1.24000
O1365       O  0.17207676  0.64055652  0.02255827    -0.86200
O1366       O  0.21053091  0.65371532  0.03326328    -0.83300
C1367       C  0.22981807  0.65265236  0.03418282     0.97300
O1368       O  0.23902941  0.64923401  0.01789744    -0.83300
O1369       O  0.23323291  0.60908414  0.03005778    -0.85900
C1370       C  0.22707592  0.59088424  0.03066567     1.01800
O1371       O  0.21291255  0.58490819  0.01859735    -0.78700
O1372       O  0.17979580  0.60878688  0.02914804    -0.78900
C1373       C  0.17117934  0.62524841  0.03464519     1.01700
O1374       O  0.18305052  0.64625944  0.97835547    -0.86200
O1375       O  0.21961757  0.66402677  0.98905812    -0.83300
C1376       C  0.23272390  0.65582320  0.97694980     0.97300
O1377       O  0.23598556  0.63686509  0.97737202    -0.83300
O1378       O  0.23653217  0.59695372  0.98851170    -0.85900
C1379       C  0.22470546  0.59008555  0.97497324     1.01700
O1380       O  0.20586809  0.59433861  0.97557696    -0.78700
O1381       O  0.17064162  0.61572508  0.98469142    -0.78900
C1382       C  0.17261722  0.63089307  0.97247442     1.01700
Cr1383     Cr  0.19678934  0.64974164  0.00565793     1.93700
Cr1384     Cr  0.23449719  0.62310047  0.00356050     1.93200
Cr1385     Cr  0.19291446  0.60253432  0.00210831     1.39100
O1386       O  0.20781615  0.62505745  0.00340339    -1.24000
O1387       O  0.00678133  0.61110437  0.18357478    -0.86200
O1388       O  0.01668225  0.58968387  0.21872005    -0.83300
C1389       C  0.01798376  0.58573688  0.23766964     0.97300
O1390       O  0.00518420  0.59305146  0.25001934    -0.83300
O1391       O  0.01545970  0.63218529  0.24623372    -0.85900
C1392       C  0.01488017  0.65119159  0.24585359     1.01800
O1393       O  0.00330598  0.66013852  0.23311624    -0.78700
O1394       O  0.01427068  0.64096546  0.19669736    -0.78900
C1395       C  0.01960835  0.62595382  0.18579312     1.01700
O1396       O  0.96220388  0.60459093  0.19467961    -0.86200
O1397       O  0.97462223  0.58087691  0.22774110    -0.83300
C1398       C  0.96409239  0.58531807  0.24364986     0.97300
O1399       O  0.96374992  0.60354608  0.25013531    -0.83300
O1400       O  0.97369934  0.64427883  0.25360722    -0.85900
C1401       C  0.96051227  0.65379518  0.24338979     1.01700
O1402       O  0.96077374  0.65287063  0.22406275    -0.78700
O1403       O  0.96937666  0.63632176  0.18648955    -0.78900
C1404       C  0.95634668  0.62171721  0.18767405     1.01700
Cr1405     Cr  0.98976208  0.59820846  0.20665257     1.93700
Cr1406     Cr  0.98939489  0.61870433  0.24814426     1.93200
Cr1407     Cr  0.98716171  0.64573661  0.21033184     1.39100
O1408       O  0.98812454  0.62077228  0.22155756    -1.24000
O1409       O  0.13318224  0.47650624  0.31188174    -0.86200
O1410       O  0.14660035  0.48940508  0.27329017    -0.83300
C1411       C  0.13680752  0.47835186  0.26049006     0.97300
O1412       O  0.11771506  0.47804901  0.26084559    -0.83300
O1413       O  0.07811110  0.48702254  0.26610096    -0.85900
C1414       C  0.07309921  0.47317617  0.27847105     1.01800
O1415       O  0.07915953  0.47414849  0.29692666    -0.78700
O1416       O  0.10561758  0.48413715  0.32924744    -0.78900
C1417       C  0.11981348  0.47142633  0.32504300     1.01700
O1418       O  0.12963357  0.52058277  0.32481150    -0.86200
O1419       O  0.13918001  0.53156390  0.28571027    -0.83300
C1420       C  0.13664113  0.53355286  0.26671862     0.97300
O1421       O  0.12717643  0.52020079  0.25657743    -0.83300
O1422       O  0.08825724  0.52915118  0.26746797    -0.85900
C1423       C  0.07159365  0.52925650  0.27709903     1.01700
O1424       O  0.06850679  0.51709787  0.29203672    -0.78700
O1425       O  0.09726464  0.52806993  0.32111966    -0.78900
C1426       C  0.11496639  0.53325207  0.32718943     1.01700
Cr1427     Cr  0.13533931  0.50423260  0.29870345     1.93700
Cr1428     Cr  0.10333623  0.50357598  0.26472018     1.93200
Cr1429     Cr  0.08912809  0.50099327  0.30893903     1.39100
O1430       O  0.10924682  0.50303693  0.29091039    -1.24000
O1431       O  0.30721058  0.51883468  0.13970006    -0.86200
O1432       O  0.26658417  0.52633656  0.14342936    -0.83300
C1433       C  0.24789192  0.52730774  0.13889446     0.97300
O1434       O  0.24054929  0.51321925  0.12824822    -0.83300
O1435       O  0.26000668  0.53277363  0.09557184    -0.85900
C1436       C  0.27207126  0.53645075  0.08089160     1.01800
O1437       O  0.28615374  0.52364100  0.07620191    -0.78700
O1438       O  0.31251369  0.52628724  0.10743851    -0.78900
C1439       C  0.31367950  0.53137871  0.12619867     1.01700
O1440       O  0.29790865  0.47397746  0.13657543    -0.86200
O1441       O  0.25737177  0.48132614  0.14167461    -0.83300
C1442       C  0.24778950  0.47071655  0.12814005     0.97300
O1443       O  0.24844723  0.47588897  0.10957211    -0.83300
O1444       O  0.25997874  0.49597297  0.07417453    -0.85900
C1445       C  0.26898127  0.47944754  0.07103853     1.01700
O1446       O  0.28643105  0.47734128  0.07915837    -0.78700
O1447       O  0.31623035  0.48019743  0.10902875    -0.78900
C1448       C  0.31139123  0.46834996  0.12379156     1.01700
Cr1449     Cr  0.28225120  0.50021251  0.13866959     1.93700
Cr1450     Cr  0.25390198  0.50435069  0.10250146     1.93200
Cr1451     Cr  0.29932996  0.50172376  0.09413126     1.39100
O1452       O  0.27892738  0.50193834  0.11194548    -1.24000
O1453       O  0.35388220  0.66959811  0.15490568    -0.86200
O1454       O  0.32055630  0.69264426  0.17009221    -0.83300
C1455       C  0.31952506  0.70935154  0.15961422     0.97300
O1456       O  0.31607142  0.70851770  0.14072268    -0.83300
O1457       O  0.30569307  0.69551947  0.10265705    -0.85900
C1458       C  0.32358844  0.69645390  0.09574421     1.01800
O1459       O  0.33700621  0.68400376  0.10184508    -0.78700
O1460       O  0.35640237  0.65415912  0.12519352    -0.78900
C1461       C  0.36506026  0.66297633  0.14025643     1.01700
O1462       O  0.32895948  0.63151368  0.15400303    -0.86200
O1463       O  0.29424916  0.65428962  0.16606285    -0.83300
C1464       C  0.27997078  0.66735702  0.16451708     0.97300
O1465       O  0.28465433  0.68471848  0.15793374    -0.83300
O1466       O  0.27905888  0.66656231  0.12033030    -0.85900
C1467       C  0.28315143  0.65874303  0.10321517     1.01700
O1468       O  0.30168168  0.65727711  0.09719349    -0.78700
O1469       O  0.32002378  0.62904709  0.12164545    -0.78900
C1470       C  0.32466807  0.62045220  0.13826660     1.01700
Cr1471     Cr  0.32394054  0.66241352  0.15988967     1.93700
Cr1472     Cr  0.29776323  0.68741973  0.13074598     1.93200
Cr1473     Cr  0.32809998  0.65697076  0.11305768     1.39100
O1474       O  0.31696568  0.66877369  0.13460264    -1.24000
O1475       O  0.13195256  0.63416888  0.34098481    -0.86200
O1476       O  0.14441226  0.66416895  0.31249193    -0.83300
C1477       C  0.13333695  0.66502866  0.29602929     0.97300
O1478       O  0.11559005  0.67234816  0.29669064    -0.83300
O1479       O  0.07846691  0.68453948  0.31061145    -0.85900
C1480       C  0.07201557  0.66686787  0.30767768     1.01800
O1481       O  0.07795674  0.65268464  0.31925990    -0.78700
O1482       O  0.09927097  0.63080902  0.34744044    -0.78900
C1483       C  0.11641097  0.62263728  0.34370195     1.01700
O1484       O  0.13006766  0.66500970  0.37463044    -0.86200
O1485       O  0.14214475  0.69536759  0.34882178    -0.83300
C1486       C  0.14109601  0.70882332  0.33501183     0.97300
O1487       O  0.13433152  0.70282295  0.31833188    -0.83300
O1488       O  0.09652446  0.70920134  0.33919721    -0.85900
C1489       C  0.07892562  0.70522819  0.34635466     1.01700
O1490       O  0.07308452  0.68665548  0.34890229    -0.78700
O1491       O  0.09642952  0.66453038  0.37632695    -0.78900
C1492       C  0.11357094  0.66633281  0.38518218     1.01700
Cr1493     Cr  0.13563886  0.66508625  0.34359213     1.93700
Cr1494     Cr  0.10667422  0.69072353  0.31792912     1.93200
Cr1495     Cr  0.08837382  0.65949480  0.34727689     1.39100
O1496       O  0.11031141  0.67125887  0.33660524    -1.24000
O1497       O  0.11938222  0.64130936  0.17190975    -0.86200
O1498       O  0.15150046  0.65901615  0.19410417    -0.83300
C1499       C  0.15280134  0.64919502  0.21109776     0.97300
O1500       O  0.15907580  0.63101167  0.21136497    -0.83300
O1501       O  0.16919109  0.59260024  0.19903715    -0.85900
C1502       C  0.15145843  0.58531438  0.20030873     1.01800
O1503       O  0.13813927  0.58971470  0.18703682    -0.78700
O1504       O  0.11785880  0.61143991  0.15660739    -0.78900
C1505       C  0.10872998  0.62614073  0.16531739     1.01700
O1506       O  0.14417215  0.64110498  0.13388727    -0.86200
O1507       O  0.17784537  0.65547130  0.15580619    -0.83300
C1508       C  0.19263657  0.65486511  0.16830549     0.97300
O1509       O  0.18952593  0.64756202  0.18579017    -0.83300
O1510       O  0.19612315  0.60856799  0.16994491    -0.85900
C1511       C  0.19203477  0.59143452  0.16189439     1.01700
O1512       O  0.17359847  0.58522861  0.16027578    -0.78700
O1513       O  0.15486975  0.60941976  0.13170070    -0.78900
C1514       C  0.15010546  0.62595482  0.12292195     1.01700
Cr1515     Cr  0.14885939  0.64766342  0.16442562     1.93700
Cr1516     Cr  0.17693296  0.62024780  0.18998131     1.93200
Cr1517     Cr  0.14682219  0.60063584  0.15976197     1.39100
O1518       O  0.15730832  0.62286662  0.17127357    -1.24000
O1519       O  0.32793905  0.86177911  0.37540763    -0.86200
O1520       O  0.29388562  0.85159074  0.35029500    -0.83300
C1521       C  0.28031916  0.85421206  0.33652680     0.97300
O1522       O  0.28587158  0.86197170  0.31983738    -0.83300
O1523       O  0.28414689  0.90096963  0.33580611    -0.85900
C1524       C  0.28968481  0.91760899  0.34383974     1.01800
O1525       O  0.30843121  0.92150587  0.34720368    -0.78700
O1526       O  0.31951423  0.89427196  0.37745413    -0.78900
C1527       C  0.32291747  0.87742196  0.38630261     1.01700
O1528       O  0.35488844  0.85924161  0.33846979    -0.86200
O1529       O  0.32144906  0.84495435  0.31450284    -0.83300
C1530       C  0.32252317  0.85510103  0.29771942     0.97300
O1531       O  0.32164105  0.87419825  0.29831329    -0.83300
O1532       O  0.31591575  0.91312912  0.30928771    -0.85900
C1533       C  0.33458148  0.91763739  0.31008060     1.01700
O1534       O  0.34547880  0.91145321  0.32480297    -0.78700
O1535       O  0.35753577  0.88659651  0.35737926    -0.78900
C1536       C  0.36620634  0.87281178  0.34689548     1.01700
Cr1537     Cr  0.32433859  0.85585469  0.34435903     1.93700
Cr1538     Cr  0.30305794  0.88707846  0.31737798     1.93200
Cr1539     Cr  0.33192684  0.90200260  0.35074934     1.39100
O1540       O  0.31972025  0.88160482  0.33778818    -1.24000
O1541       O  0.34167481  0.83185046  0.13777257    -0.86200
O1542       O  0.32911438  0.81005868  0.17289305    -0.83300
C1543       C  0.33962566  0.79346688  0.17296589     0.97300
O1544       O  0.35875984  0.79454604  0.17357835    -0.83300
O1545       O  0.39749697  0.80803248  0.17961343    -0.85900
C1546       C  0.40265143  0.80763767  0.16110888     1.01800
O1547       O  0.39548437  0.82040761  0.14862486    -0.78700
O1548       O  0.36943669  0.84982263  0.13270561    -0.78900
C1549       C  0.35516087  0.83878410  0.12543237     1.01700
O1550       O  0.34360132  0.87082830  0.16195582    -0.86200
O1551       O  0.33478529  0.84779407  0.19799282    -0.83300
C1552       C  0.33726070  0.83462042  0.21216894     0.97300
O1553       O  0.34518646  0.81788674  0.20728914    -0.83300
O1554       O  0.38331767  0.83600299  0.20888131    -0.85900
C1555       C  0.39945188  0.84471723  0.20285400     1.01700
O1556       O  0.40347994  0.84679958  0.18385971    -0.78700
O1557       O  0.37605390  0.87399738  0.16932078    -0.78900
C1558       C  0.35908319  0.88229897  0.16590809     1.01700
Cr1559     Cr  0.33878706  0.83992067  0.16787102     1.93700
Cr1560     Cr  0.37069858  0.81553111  0.19099369     1.93200
Cr1561     Cr  0.38463272  0.84684177  0.15944235     1.39100
O1562       O  0.36467538  0.83432622  0.17264530    -1.24000
O1563       O  0.15378557  0.87161240  0.36028054    -0.86200
O1564       O  0.17772187  0.83870509  0.34474050    -0.83300
C1565       C  0.19432953  0.83890793  0.35525415     0.97300
O1566       O  0.19344808  0.83629582  0.37422424    -0.83300
O1567       O  0.18074947  0.82801904  0.41277716    -0.85900
C1568       C  0.17985538  0.84640186  0.41851406     1.01800
O1569       O  0.16556985  0.85776928  0.41241762    -0.78700
O1570       O  0.13497179  0.87320807  0.38802411    -0.78900
C1571       C  0.14521705  0.88243937  0.37420920     1.01700
O1572       O  0.11679016  0.84595986  0.36071284    -0.86200
O1573       O  0.14097750  0.81105829  0.34926106    -0.83300
C1574       C  0.15450267  0.79714669  0.35139525     0.97300
O1575       O  0.17130180  0.80260358  0.35877597    -0.83300
O1576       O  0.15425982  0.79758447  0.39727550    -0.85900
C1577       C  0.14736668  0.80167190  0.41482153     1.01700
O1578       O  0.14258707  0.82011054  0.41926694    -0.78700
O1579       O  0.11371194  0.83422239  0.39194005    -0.78900
C1580       C  0.10537887  0.84044980  0.37573858     1.01700
Cr1581     Cr  0.14762714  0.84134591  0.35512509     1.93700
Cr1582     Cr  0.17343388  0.81733644  0.38536189     1.93200
Cr1583     Cr  0.14005189  0.84556893  0.40143446     1.39100
O1584       O  0.15358563  0.83493383  0.38061848    -1.24000
O1585       O  0.35163240  0.18480512  0.02052076    -0.86200
O1586       O  0.33435656  0.22070630  0.02959180    -0.83300
C1587       C  0.33283043  0.23966972  0.03186441     0.97300
O1588       O  0.33786510  0.25127614  0.01735404    -0.83300
O1589       O  0.37746145  0.25017602  0.03220651    -0.85900
C1590       C  0.39560853  0.24404095  0.03430470     1.01800
O1591       O  0.40291244  0.23019474  0.02244229    -0.78700
O1592       O  0.38269861  0.19396653  0.02868733    -0.78900
C1593       C  0.36628760  0.18470706  0.03338257     1.01700
O1594       O  0.34893602  0.19608988  0.97608784    -0.86200
O1595       O  0.32849584  0.23035199  0.98478103    -0.83300
C1596       C  0.33751144  0.24299802  0.97279514     0.97300
O1597       O  0.35481637  0.25004945  0.97713798    -0.83300
O1598       O  0.39270167  0.25497643  0.99266614    -0.85900
C1599       C  0.40187566  0.24439753  0.97948134     1.01700
O1600       O  0.39896142  0.22525398  0.97851558    -0.78700
O1601       O  0.38057278  0.18738026  0.98242133    -0.78900
C1602       C  0.36512871  0.18736317  0.97035628     1.01700
Cr1603     Cr  0.34240598  0.20882420  0.00282121     1.93700
Cr1604     Cr  0.36550896  0.24961025  0.00477579     1.93200
Cr1605     Cr  0.38959943  0.20965473  0.00306521     1.39100
O1606       O  0.36597648  0.22245872  0.00359134    -1.24000
O1607       O  0.01310652  0.36188054  0.20019915    -0.86200
O1608       O  0.00318714  0.35076193  0.23910848    -0.83300
C1609       C  0.01372228  0.36199388  0.25139936     0.97300
O1610       O  0.01123664  0.38114777  0.25199641    -0.83300
O1611       O  0.99522105  0.41943638  0.24650810    -0.85900
C1612       C  0.01118188  0.42405439  0.23711339     1.01800
O1613       O  0.01267061  0.41777783  0.21874338    -0.78700
O1614       O  0.00911717  0.39196505  0.18542986    -0.78900
C1615       C  0.02027797  0.37639572  0.18939347     1.01700
O1616       O  0.96843470  0.36341487  0.18870453    -0.86200
O1617       O  0.95834876  0.35541999  0.22848584    -0.83300
C1618       C  0.95730142  0.35839765  0.24760516     0.97300
O1619       O  0.97288307  0.36489429  0.25611024    -0.83300
O1620       O  0.95634419  0.40156265  0.24199701    -0.85900
C1621       C  0.95520442  0.41907380  0.23417403     1.01700
O1622       O  0.96780846  0.42422028  0.22003084    -0.78700
O1623       O  0.96273055  0.39638636  0.18897359    -0.78900
C1624       C  0.95675852  0.37841239  0.18436706     1.01700
Cr1625     Cr  0.98582098  0.35941284  0.21428070     1.93700
Cr1626     Cr  0.98394904  0.39144993  0.24748058     1.93200
Cr1627     Cr  0.98796648  0.40608966  0.20394583     1.39100
O1628       O  0.98630368  0.38558380  0.22145391    -1.24000
O1629       O  0.16031453  0.98408281  0.39335831    -0.86200
O1630       O  0.19225823  0.97762631  0.42050606    -0.83300
C1631       C  0.21031670  0.97836799  0.42746643     0.97300
O1632       O  0.22181472  0.99244219  0.42174877    -0.83300
O1633       O  0.22281310  0.97470493  0.38406563    -0.85900
C1634       C  0.22517279  0.97272210  0.36520921     1.01800
O1635       O  0.21511004  0.98432002  0.35312788    -0.78700
O1636       O  0.17542026  0.97814415  0.36395706    -0.78900
C1637       C  0.16351892  0.97219108  0.37804960     1.01700
O1638       O  0.16791465  0.02987368  0.39802244    -0.86200
O1639       O  0.19785284  0.02265008  0.42552852    -0.83300
C1640       C  0.21364455  0.03351338  0.42106253     0.97300
O1641       O  0.22366048  0.03049801  0.40468070    -0.83300
O1642       O  0.23459177  0.01311887  0.36723211    -0.85900
C1643       C  0.22751065  0.02865774  0.35878623     1.01700
O1644       O  0.20845466  0.02919446  0.35599519    -0.78700
O1645       O  0.16829734  0.02408371  0.36473208    -0.78900
C1646       C  0.16506180  0.03612304  0.37989089     1.01700
Cr1647     Cr  0.18031233  0.00354962  0.40783917     1.93700
Cr1648     Cr  0.22407609  0.00271358  0.39379572     1.93200
Cr1649     Cr  0.19176141  0.00387717  0.36116197     1.39100
O1650       O  0.19825429  0.00394305  0.38760991    -1.24000
O1651       O  0.17472423  0.35935601  0.98377008    -0.86200
O1652       O  0.21499664  0.34990128  0.97908528    -0.83300
C1653       C  0.23413284  0.35192250  0.98053841     0.97300
O1654       O  0.24084399  0.35739959  0.99749615    -0.83300
O1655       O  0.23504539  0.39691830  0.98251059    -0.85900
C1656       C  0.22582483  0.41364315  0.97928989     1.01800
O1657       O  0.20944166  0.41815057  0.98905402    -0.78700
O1658       O  0.17868883  0.39218135  0.97821270    -0.78900
C1659       C  0.17345953  0.37461324  0.97179407     1.01700
O1660       O  0.18008558  0.35640868  0.02920144    -0.86200
O1661       O  0.21851300  0.34258321  0.02412162    -0.83300
C1662       C  0.22833032  0.35256701  0.03777190     0.97300
O1663       O  0.23037141  0.37171726  0.03659548    -0.83300
O1664       O  0.23168342  0.41095133  0.02221709    -0.85900
C1665       C  0.21839426  0.41889062  0.03348471     1.01700
O1666       O  0.19989859  0.41316606  0.03227734    -0.78700
O1667       O  0.16753538  0.38688857  0.02335890    -0.78900
C1668       C  0.16884362  0.37110803  0.03492658     1.01700
Cr1669     Cr  0.19744624  0.35381290  0.00415563     1.93700
Cr1670     Cr  0.23262847  0.38381371  0.00950721     1.93200
Cr1671     Cr  0.18957984  0.40087140  0.00575730     1.39100
O1672       O  0.20621720  0.37966732  0.00648331    -1.24000
O1673       O  0.37912543  0.02848104  0.18573628    -0.86200
O1674       O  0.40588692  0.02597793  0.21715039    -0.83300
C1675       C  0.39943000  0.03901566  0.23039644     0.97300
O1676       O  0.38185946  0.03715137  0.23786242    -0.83300
O1677       O  0.34670297  0.01933600  0.25232287    -0.85900
C1678       C  0.33740854  0.03272878  0.24259076     1.01800
O1679       O  0.33575311  0.03076327  0.22355623    -0.78700
O1680       O  0.34632744  0.02134656  0.18493436    -0.78900
C1681       C  0.36110383  0.03354053  0.18082860     1.01700
O1682       O  0.37686270  0.98264869  0.18228398    -0.86200
O1683       O  0.40195815  0.98058272  0.21679237    -0.83300
C1684       C  0.40766497  0.98362563  0.23513930     0.97300
O1685       O  0.40217386  0.99974706  0.24391366    -0.83300
O1686       O  0.36547259  0.98161395  0.25007205    -0.85900
C1687       C  0.34692056  0.97683222  0.24846462     1.01700
O1688       O  0.33507720  0.98593867  0.23568543    -0.78700
O1689       O  0.34714827  0.97678399  0.19674819    -0.78900
C1690       C  0.36150414  0.97084646  0.18518499     1.01700
Cr1691     Cr  0.38951353  0.00434784  0.20117246     1.93700
Cr1692     Cr  0.37371028  0.00930274  0.24422991     1.93200
Cr1693     Cr  0.34271308  0.00368815  0.21050927     1.39100
O1694       O  0.36854069  0.00537156  0.21822769    -1.24000
O1695       O  0.96788472  0.18532050  0.35889518    -0.86200
O1696       O  0.96044870  0.22613399  0.35232797    -0.83300
C1697       C  0.96032436  0.24514140  0.35591182     0.97300
O1698       O  0.97502034  0.25313815  0.36545640    -0.83300
O1699       O  0.95926977  0.24075985  0.40214176    -0.85900
C1700       C  0.95597566  0.23010698  0.41786807     1.01800
O1701       O  0.96636481  0.21385707  0.42148378    -0.78700
O1702       O  0.95959142  0.18540938  0.39150153    -0.78900
C1703       C  0.95515962  0.18110765  0.37313570     1.01700
O1704       O  0.01262028  0.19548700  0.36011617    -0.86200
O1705       O  0.00486997  0.23494411  0.34987146    -0.83300
C1706       C  0.01689478  0.24402278  0.36235398     0.97300
O1707       O  0.01434440  0.24170906  0.38114610    -0.83300
O1708       O  0.99744839  0.23779362  0.41884439    -0.85900
C1709       C  0.01108447  0.22541453  0.42364490     1.01700
O1710       O  0.01099623  0.20769534  0.41590891    -0.78700
O1711       O  0.00447211  0.17769928  0.38726003    -0.78900
C1712       C  0.01762726  0.18258468  0.37358296     1.01700
Cr1713     Cr  0.98634877  0.21046098  0.35695662     1.93700
Cr1714     Cr  0.98658382  0.24169480  0.39114225     1.93200
Cr1715     Cr  0.98529563  0.19706360  0.40270392     1.39100
O1716       O  0.98546485  0.21605752  0.38359655    -1.24000
O1717       O  0.32021455  0.36987805  0.14642008    -0.86200
O1718       O  0.29588386  0.33718693  0.16295711    -0.83300
C1719       C  0.27935123  0.33677117  0.15237440     0.97300
O1720       O  0.28047958  0.33442526  0.13346559    -0.83300
O1721       O  0.29269189  0.32507488  0.09612595    -0.85900
C1722       C  0.29324450  0.34318106  0.08990069     1.01800
O1723       O  0.30788262  0.35480775  0.09472175    -0.78700
O1724       O  0.33937234  0.36998548  0.11875896    -0.78900
C1725       C  0.32906622  0.37985064  0.13203748     1.01700
O1726       O  0.35662624  0.34366171  0.14700038    -0.86200
O1727       O  0.33241834  0.30988679  0.15918757    -0.83300
C1728       C  0.31902992  0.29578053  0.15719745     0.97300
O1729       O  0.30205394  0.30078409  0.15003588    -0.83300
O1730       O  0.31889200  0.29477822  0.11203926    -0.85900
C1731       C  0.32555809  0.29811277  0.09436176     1.01700
O1732       O  0.32995643  0.31630321  0.08867764    -0.78700
O1733       O  0.35985345  0.33113637  0.11576457    -0.78900
C1734       C  0.36797104  0.33720320  0.13232466     1.01700
Cr1735     Cr  0.32592594  0.33977337  0.15258201     1.93700
Cr1736     Cr  0.29999169  0.31491786  0.12324371     1.93200
Cr1737     Cr  0.33341948  0.34234614  0.10594672     1.39100
O1738       O  0.31998226  0.33252069  0.12728272    -1.24000
O1739       O  0.35475362  0.14805994  0.33834523    -0.86200
O1740       O  0.32285769  0.16231618  0.31268081    -0.83300
C1741       C  0.32257786  0.15145339  0.29606642     0.97300
O1742       O  0.32036197  0.13245914  0.29755037    -0.83300
O1743       O  0.30777297  0.09466885  0.30926634    -0.85900
C1744       C  0.32566151  0.08820689  0.30759963     1.01800
O1745       O  0.33895461  0.09391418  0.32045987    -0.78700
O1746       O  0.35810975  0.11687164  0.35087780    -0.78900
C1747       C  0.36605051  0.13313187  0.34363111     1.01700
O1748       O  0.32757848  0.14619510  0.37434800    -0.86200
O1749       O  0.29461614  0.15849109  0.34924048    -0.83300
C1750       C  0.28137165  0.15798886  0.33504243     0.97300
O1751       O  0.28673764  0.14991502  0.31852725    -0.83300
O1752       O  0.28015658  0.11209223  0.33674417    -0.85900
C1753       C  0.28419863  0.09504331  0.34483896     1.01700
O1754       O  0.30275401  0.08927411  0.34730034    -0.78700
O1755       O  0.32168524  0.11309100  0.37631806    -0.78900
C1756       C  0.32408266  0.13017138  0.38522035     1.01700
Cr1757     Cr  0.32459667  0.15217948  0.34330498     1.93700
Cr1758     Cr  0.30017032  0.12272019  0.31706795     1.93200
Cr1759     Cr  0.32962992  0.10491194  0.34795342     1.39100
O1760       O  0.31834573  0.12664885  0.33662398    -1.24000
O1761       O  0.13227257  0.34542541  0.37658396    -0.86200
O1762       O  0.14536616  0.31159550  0.35291151    -0.83300
C1763       C  0.14472113  0.29772263  0.33919682     0.97300
O1764       O  0.13827896  0.30300057  0.32206289    -0.83300
O1765       O  0.09878025  0.29649527  0.33843069    -0.85900
C1766       C  0.08142442  0.30126994  0.34559882     1.01800
O1767       O  0.07616067  0.31992512  0.34777895    -0.78700
O1768       O  0.09959716  0.33783728  0.37771043    -0.78900
C1769       C  0.11616611  0.34135015  0.38704057     1.01700
O1770       O  0.13500199  0.37178004  0.33991425    -0.86200
O1771       O  0.15063047  0.34005118  0.31620627    -0.83300
C1772       C  0.14069705  0.34020941  0.29920336     0.97300
O1773       O  0.12236903  0.33432156  0.29842191    -0.83300
O1774       O  0.08353039  0.32387865  0.30977300    -0.85900
C1775       C  0.07646872  0.34166096  0.30900603     1.01700
O1776       O  0.08275080  0.35504186  0.32162794    -0.78700
O1777       O  0.10441420  0.37423932  0.35319795    -0.78900
C1778       C  0.12006120  0.38289778  0.34563115     1.01700
Cr1779     Cr  0.13930202  0.34160137  0.34594471     1.93700
Cr1780     Cr  0.11111471  0.31580535  0.31878822     1.93200
Cr1781     Cr  0.09241590  0.34602123  0.34924694     1.39100
O1782       O  0.11430008  0.33473419  0.33823527    -1.24000
O1783       O  0.11841118  0.16287855  0.36190730    -0.86200
O1784       O  0.14418686  0.19719272  0.35399170    -0.83300
C1785       C  0.15855186  0.21021036  0.35648265     0.97300
O1786       O  0.17516288  0.20393593  0.36378819    -0.83300
O1787       O  0.15946874  0.20559039  0.40186375    -0.85900
C1788       C  0.15013566  0.20119506  0.41803265     1.01800
O1789       O  0.14520363  0.18274512  0.42221723    -0.78700
O1790       O  0.11581659  0.17104931  0.39430811    -0.78900
C1791       C  0.10725985  0.16788718  0.37726868     1.01700
O1792       O  0.15414845  0.13617200  0.35877823    -0.86200
O1793       O  0.17932611  0.16957746  0.34607395    -0.83300
C1794       C  0.19598377  0.16759464  0.35622835     0.97300
O1795       O  0.19490135  0.16631397  0.37528622    -0.83300
O1796       O  0.18442180  0.17299985  0.41476423    -0.85900
C1797       C  0.18208896  0.15471959  0.42035029     1.01700
O1798       O  0.16699852  0.14441063  0.41399448    -0.78700
O1799       O  0.13661239  0.13191997  0.38744223    -0.78900
C1800       C  0.14643542  0.12436661  0.37232231     1.01700
Cr1801     Cr  0.14933796  0.16660513  0.35674126     1.93700
Cr1802     Cr  0.17696580  0.18592618  0.38847277     1.93200
Cr1803     Cr  0.14206859  0.15836388  0.40295376     1.39100
O1804       O  0.15589191  0.17011935  0.38277573    -1.24000
O1805       O  0.14683963  0.35656842  0.13577423    -0.86200
O1806       O  0.18011351  0.34648463  0.16042825    -0.83300
C1807       C  0.19402978  0.34843397  0.17372459     0.97300
O1808       O  0.18908549  0.35753184  0.18960052    -0.83300
O1809       O  0.19538154  0.39252684  0.16440427    -0.85900
C1810       C  0.19078598  0.40869047  0.15475539     1.01800
O1811       O  0.17231888  0.41514547  0.15406155    -0.78700
O1812       O  0.14863306  0.38979604  0.13104886    -0.78900
C1813       C  0.14773253  0.37194196  0.12357544     1.01700
O1814       O  0.12016933  0.35830232  0.17242979    -0.86200
O1815       O  0.15240409  0.34830647  0.19888161    -0.83300
C1816       C  0.15462105  0.36077347  0.21429507     0.97300
O1817       O  0.16113351  0.37878373  0.21150179    -0.83300
O1818       O  0.17277694  0.41489528  0.19275661    -0.85900
C1819       C  0.15538070  0.42178633  0.19644671     1.01700
O1820       O  0.14040610  0.41473374  0.18638478    -0.78700
O1821       O  0.11619275  0.39000748  0.16147890    -0.78900
C1822       C  0.10861144  0.37337577  0.16821561     1.01700
Cr1823     Cr  0.15041764  0.35403289  0.16721296     1.93700
Cr1824     Cr  0.17802868  0.38544802  0.18803555     1.93200
Cr1825     Cr  0.14516322  0.40084665  0.15919445     1.39100
O1826       O  0.15727464  0.38000128  0.17127798    -1.24000
O1827       O  0.34499834  0.13418089  0.17033169    -0.86200
O1828       O  0.33045765  0.16785629  0.19405830    -0.83300
C1829       C  0.33998411  0.16846842  0.21134176     0.97300
O1830       O  0.35900098  0.17097719  0.21155125    -0.83300
O1831       O  0.39816261  0.17786990  0.19983236    -0.85900
C1832       C  0.40441459  0.15967304  0.19986719     1.01800
O1833       O  0.39853227  0.14731114  0.18607290    -0.78700
O1834       O  0.37439443  0.13108617  0.15459953    -0.78900
C1835       C  0.35896762  0.12264968  0.16300840     1.01700
O1836       O  0.34834739  0.16015704  0.13329739    -0.86200
O1837       O  0.33756971  0.19467887  0.15700089    -0.83300
C1838       C  0.33909533  0.20882207  0.17036784     0.97300
O1839       O  0.34559871  0.20384052  0.18762962    -0.83300
O1840       O  0.38401344  0.20665211  0.17113784    -0.85900
C1841       C  0.40127572  0.20226819  0.16397748     1.01700
O1842       O  0.40665254  0.18367921  0.16145860    -0.78700
O1843       O  0.38071270  0.16863545  0.13153086    -0.78900
C1844       C  0.36400981  0.16505159  0.12243830     1.01700
Cr1845     Cr  0.34184266  0.16455903  0.16416741     1.93700
Cr1846     Cr  0.37141964  0.18842260  0.19099216     1.93200
Cr1847     Cr  0.38843326  0.15841487  0.15930217     1.39100
O1848       O  0.36719858  0.17001683  0.17151136    -1.24000
O1849       O  0.85025377  0.68969081  0.53086743    -0.86200
O1850       O  0.83580703  0.72701558  0.51828222    -0.83300
C1851       C  0.84522525  0.74074995  0.52864332     0.97300
O1852       O  0.86427935  0.74307371  0.52700075    -0.83300
O1853       O  0.90401138  0.73840865  0.51471880    -0.85900
C1854       C  0.90992564  0.72799197  0.52973509     1.01800
O1855       O  0.90425301  0.70937369  0.53114396    -0.78700
O1856       O  0.87951703  0.67453815  0.52498362    -0.78900
C1857       C  0.86406395  0.67752417  0.53670882     1.01700
O1858       O  0.85379645  0.67593916  0.48767403    -0.86200
O1859       O  0.84223292  0.71385433  0.47535288    -0.83300
C1860       C  0.84311595  0.73292504  0.47293427     0.97300
O1861       O  0.85176737  0.74388144  0.48611620    -0.83300
O1862       O  0.88964840  0.73228020  0.47389982    -0.85900
C1863       C  0.90770863  0.72600223  0.47443817     1.01700
O1864       O  0.91258295  0.71231438  0.48746772    -0.78700
O1865       O  0.88574840  0.68089350  0.47959424    -0.78900
C1866       C  0.86816590  0.67440774  0.47459914     1.01700
Cr1867     Cr  0.84721815  0.70204281  0.50318070     1.93700
Cr1868     Cr  0.87716187  0.73752776  0.50064925     1.93200
Cr1869     Cr  0.89397526  0.69483519  0.50570220     1.39100
O1870       O  0.87271040  0.71129299  0.50368792    -1.24000
O1871       O  0.51492860  0.86234184  0.69357456    -0.86200
O1872       O  0.51275520  0.85397565  0.73410169    -0.83300
C1873       C  0.52448649  0.86691799  0.74308467     0.97300
O1874       O  0.52089607  0.88568122  0.74191568    -0.83300
O1875       O  0.50146896  0.92222446  0.73814744    -0.85900
C1876       C  0.51550179  0.92658459  0.72603677     1.01800
O1877       O  0.51508953  0.91886029  0.70838403    -0.78700
O1878       O  0.50814342  0.89133373  0.67831088    -0.78900
C1879       C  0.52037633  0.87642303  0.68143611     1.01700
O1880       O  0.46795168  0.86103307  0.69090578    -0.86200
O1881       O  0.46796749  0.85393033  0.73176589    -0.83300
C1882       C  0.46919717  0.85786353  0.75066217     0.97300
O1883       O  0.48434654  0.86787050  0.75671760    -0.83300
O1884       O  0.46438686  0.90282568  0.74366416    -0.85900
C1885       C  0.46008648  0.91869872  0.73364248     1.01700
O1886       O  0.46968294  0.92316708  0.71693376    -0.78700
O1887       O  0.46266460  0.89426662  0.68739390    -0.78900
C1888       C  0.45626820  0.87596933  0.68590962     1.01700
Cr1889     Cr  0.49087457  0.85953314  0.71238130     1.93700
Cr1890     Cr  0.49265641  0.89397813  0.74333098     1.93200
Cr1891     Cr  0.48888403  0.90546580  0.69874632     1.39100
O1892       O  0.49028846  0.88614449  0.71772946    -1.24000
O1893       O  0.66876921  0.89802029  0.52937284    -0.86200
O1894       O  0.69884870  0.92597074  0.51858283    -0.83300
C1895       C  0.71437259  0.92347319  0.53002110     0.97300
O1896       O  0.72403216  0.90688954  0.52991157    -0.83300
O1897       O  0.73168730  0.86660319  0.52544953    -0.85900
C1898       C  0.71991295  0.85944227  0.53899322     1.01800
O1899       O  0.70125538  0.85675804  0.53538466    -0.78700
O1900       O  0.66362555  0.86611800  0.52144826    -0.78900
C1901       C  0.66227819  0.88043521  0.53464958     1.01700
O1902       O  0.66238174  0.88912087  0.48375218    -0.86200
O1903       O  0.69503329  0.91481363  0.47574878    -0.83300
C1904       C  0.71397296  0.91898181  0.47446499     0.97300
O1905       O  0.72637570  0.91266060  0.48760037    -0.83300
O1906       O  0.72996775  0.87256962  0.48183440    -0.85900
C1907       C  0.72926647  0.85350741  0.48336475     1.01700
O1908       O  0.71573540  0.84522064  0.49471257    -0.78700
O1909       O  0.67867537  0.86009327  0.47899814    -0.78900
C1910       C  0.66702086  0.87398107  0.47210149     1.01700
Cr1911     Cr  0.68204479  0.90533185  0.50216919     1.93700
Cr1912     Cr  0.72591506  0.88918020  0.50607829     1.93200
Cr1913     Cr  0.69025537  0.85885185  0.50726004     1.39100
O1914       O  0.69935691  0.88462831  0.50509133    -1.24000
O1915       O  0.84691265  0.47242227  0.70102497    -0.86200
O1916       O  0.83710495  0.48309235  0.74140139    -0.83300
C1917       C  0.84719212  0.47074205  0.75255991     0.97300
O1918       O  0.86587979  0.46835799  0.74911863    -0.83300
O1919       O  0.90590762  0.47840743  0.74280694    -0.85900
C1920       C  0.91152169  0.46727616  0.72816054     1.01800
O1921       O  0.90404377  0.46933251  0.71052898    -0.78700
O1922       O  0.87461460  0.47816873  0.68284611    -0.78900
C1923       C  0.86008075  0.46599883  0.68825052     1.01700
O1924       O  0.85039791  0.51670728  0.69068832    -0.86200
O1925       O  0.84584098  0.52540334  0.73141790    -0.83300
C1926       C  0.84960674  0.52577767  0.75039493     0.97300
O1927       O  0.85753787  0.51040610  0.75871082    -0.83300
O1928       O  0.89605272  0.51942418  0.74660094    -0.85900
C1929       C  0.91205838  0.52110252  0.73616370     1.01700
O1930       O  0.91377477  0.51187253  0.71889399    -0.78700
O1931       O  0.88298970  0.52362747  0.69227759    -0.78900
C1932       C  0.86495476  0.52949760  0.68845818     1.01700
Cr1933     Cr  0.84684478  0.49903324  0.71611556     1.93700
Cr1934     Cr  0.88072695  0.49415049  0.74739656     1.93200
Cr1935     Cr  0.89227026  0.49600666  0.70202717     1.39100
O1936       O  0.87344026  0.49641032  0.72164048    -1.24000
O1937       O  0.51348915  0.68192622  0.89743583    -0.86200
O1938       O  0.50651531  0.71335668  0.92393606    -0.83300
C1939       C  0.51926439  0.72721131  0.91843217     0.97300
O1940       O  0.51820313  0.73512132  0.90102994    -0.83300
O1941       O  0.50439501  0.74724094  0.86407360    -0.85900
C1942       C  0.51827216  0.73771842  0.85494789     1.01800
O1943       O  0.51712938  0.71843518  0.85357898    -0.78700
O1944       O  0.50701189  0.67898593  0.86461452    -0.78900
C1945       C  0.51889647  0.67599520  0.87977004     1.01700
O1946       O  0.46889795  0.67538273  0.89156014    -0.86200
O1947       O  0.46211925  0.70946920  0.91622728    -0.83300
C1948       C  0.46284796  0.72782100  0.92260870     0.97300
O1949       O  0.47793426  0.73870345  0.91759069    -0.83300
O1950       O  0.46430592  0.74264873  0.87858033    -0.85900
C1951       C  0.46281650  0.74172322  0.85946364     1.01700
O1952       O  0.47344088  0.72900590  0.84895533    -0.78700
O1953       O  0.46292094  0.69029469  0.86222010    -0.78900
C1954       C  0.45722959  0.67805291  0.87616996     1.01700
Cr1955     Cr  0.48779862  0.69583562  0.90581651     1.93700
Cr1956     Cr  0.49112034  0.73902437  0.88999790     1.93200
Cr1957     Cr  0.49000856  0.70442703  0.85901743     1.39100
O1958       O  0.48952679  0.71275867  0.88483912    -1.24000
O1959       O  0.66852033  0.51918192  0.86947512    -0.86200
O1960       O  0.70784978  0.52950458  0.86236798    -0.83300
C1961       C  0.72662434  0.53189982  0.86537105     0.97300
O1962       O  0.73542313  0.52213321  0.87925360    -0.83300
O1963       O  0.71515586  0.53870213  0.91303808    -0.85900
C1964       C  0.70480383  0.53941696  0.92939264     1.01800
O1965       O  0.69123675  0.52573244  0.93290849    -0.78700
O1966       O  0.66404012  0.52595374  0.90208306    -0.78900
C1967       C  0.66169112  0.53096838  0.88354115     1.01700
O1968       O  0.68226022  0.47548520  0.87224829    -0.86200
O1969       O  0.72133127  0.48637798  0.86545916    -0.83300
C1970       C  0.73303696  0.47809065  0.87879258     0.97300
O1971       O  0.73315723  0.48396549  0.89721598    -0.83300
O1972       O  0.72036877  0.50100259  0.93340031    -0.85900
C1973       C  0.71201290  0.48419673  0.93696913     1.01700
O1974       O  0.69463735  0.48081905  0.92906854    -0.78700
O1975       O  0.66430323  0.47986801  0.90039830    -0.78900
C1976       C  0.67009846  0.46861131  0.88549424     1.01700
Cr1977     Cr  0.69500190  0.50281623  0.86938490     1.93700
Cr1978     Cr  0.72412212  0.51120419  0.90501135     1.93200
Cr1979     Cr  0.67951234  0.50322565  0.91466160     1.39100
O1980       O  0.69926775  0.50559870  0.89613436    -1.24000
O1981       O  0.82805279  0.86780415  0.64388540    -0.86200
O1982       O  0.79573397  0.84429288  0.65887382    -0.83300
C1983       C  0.78118304  0.83142394  0.65894498     0.97300
O1984       O  0.78458086  0.81408899  0.65129425    -0.83300
O1985       O  0.77686036  0.83103109  0.61289463    -0.85900
C1986       C  0.78011616  0.83906857  0.59561977     1.01800
O1987       O  0.79813497  0.84175808  0.58863459    -0.78700
O1988       O  0.81957394  0.87015129  0.61146359    -0.78900
C1989       C  0.82338808  0.87883425  0.62839992     1.01700
O1990       O  0.85440887  0.83133524  0.64334540    -0.86200
O1991       O  0.82382383  0.80668992  0.66033885    -0.83300
C1992       C  0.82271681  0.78981748  0.64999450     0.97300
O1993       O  0.81502252  0.78982327  0.63236032    -0.83300
O1994       O  0.80218548  0.80201358  0.59473607    -0.85900
C1995       C  0.81911865  0.80145642  0.58579251     1.01700
O1996       O  0.83278638  0.81436342  0.59037071    -0.78700
O1997       O  0.85531182  0.84314240  0.61169725    -0.78900
C1998       C  0.86448721  0.83625097  0.62738885     1.01700
Cr1999     Cr  0.82476378  0.83697278  0.64997433     1.93700
Cr2000     Cr  0.79633814  0.81094648  0.62313411     1.93200
Cr2001     Cr  0.82574155  0.84151170  0.60246468     1.39100
O2002       O  0.81595816  0.83000185  0.62516053    -1.24000
O2003       O  0.63291708  0.83306309  0.87553704    -0.86200
O2004       O  0.64721201  0.80749899  0.84341026    -0.83300
C2005       C  0.63594429  0.79121264  0.84226783     0.97300
O2006       O  0.61745080  0.79280705  0.83759666    -0.83300
O2007       O  0.58068546  0.80644620  0.82441336    -0.85900
C2008       C  0.57402309  0.80368948  0.84218229     1.01800
O2009       O  0.57941619  0.81605033  0.85620518    -0.78700
O2010       O  0.60200107  0.84556789  0.87734294    -0.78900
C2011       C  0.61761021  0.83866143  0.88637601     1.01700
O2012       O  0.63357378  0.86954130  0.84846885    -0.86200
O2013       O  0.64609234  0.84486362  0.81513099    -0.83300
C2014       C  0.64498827  0.83120796  0.80120311     0.97300
O2015       O  0.63732545  0.81457762  0.80654873    -0.83300
O2016       O  0.60043341  0.83474342  0.79908268    -0.85900
C2017       C  0.58364115  0.84344460  0.80304540     1.01700
O2018       O  0.57685744  0.84480804  0.82138243    -0.78700
O2019       O  0.60068595  0.87235643  0.84234023    -0.78900
C2020       C  0.61793021  0.88085269  0.84505652     1.01700
Cr2021     Cr  0.63843549  0.83833431  0.84514127     1.93700
Cr2022     Cr  0.60938353  0.81366440  0.81832231     1.93200
Cr2023     Cr  0.59131816  0.84383727  0.84861762     1.39100
O2024       O  0.61311600  0.83236464  0.83769235    -1.24000
O2025       O  0.79557648  0.65746025  0.84232924    -0.86200
O2026       O  0.81768066  0.64269165  0.87634245    -0.83300
C2027       C  0.82420198  0.62812874  0.88756232     0.97300
O2028       O  0.83380720  0.61343308  0.87912275    -0.83300
O2029       O  0.80430453  0.58983580  0.85940477    -0.85900
C2030       C  0.79172716  0.58385075  0.84600439     1.01800
O2031       O  0.79348448  0.58986478  0.82782507    -0.78700
O2032       O  0.78044997  0.62774200  0.83765503    -0.78900
C2033       C  0.77921216  0.64654222  0.84111475     1.01700
O2034       O  0.83404846  0.65438289  0.81705348    -0.86200
O2035       O  0.85607594  0.64250416  0.85196736    -0.83300
C2036       C  0.86748800  0.62728378  0.84713661     0.97300
O2037       O  0.85934084  0.61022073  0.84296123    -0.83300
O2038       O  0.83169457  0.58493695  0.82426529    -0.85900
C2039       C  0.83035866  0.59082082  0.80567277     1.01700
O2040       O  0.82246856  0.60768991  0.80114658    -0.78700
O2041       O  0.80439614  0.64506054  0.80581163    -0.78900
C2042       C  0.82170579  0.65256317  0.80211164     1.01700
Cr2043     Cr  0.82548969  0.64781449  0.84648966     1.93700
Cr2044     Cr  0.83146536  0.60110510  0.85071257     1.93200
Cr2045     Cr  0.80157387  0.61800699  0.81956751     1.39100
O2046       O  0.81978896  0.62237979  0.83914428    -1.24000
O2047       O  0.61850030  0.65670498  0.86503332    -0.86200
O2048       O  0.64260740  0.69119694  0.85493031    -0.83300
C2049       C  0.65602846  0.70516670  0.85742549     0.97300
O2050       O  0.67290189  0.70014148  0.86498548    -0.83300
O2051       O  0.65711793  0.70288952  0.90390997    -0.85900
C2052       C  0.64955689  0.69813568  0.92095934     1.01800
O2053       O  0.64540544  0.67952774  0.92513756    -0.78700
O2054       O  0.61563556  0.66755593  0.89679001    -0.78900
C2055       C  0.60727257  0.66265336  0.87999625     1.01700
O2056       O  0.65525937  0.63083042  0.86332381    -0.86200
O2057       O  0.67878423  0.66455008  0.84856922    -0.83300
C2058       C  0.69541086  0.66382780  0.85884934     0.97300
O2059       O  0.69460553  0.66474663  0.87792636    -0.83300
O2060       O  0.68366216  0.67120085  0.91654604    -0.85900
C2061       C  0.68207651  0.65286573  0.92218397     1.01700
O2062       O  0.66728993  0.64187852  0.91618026    -0.78700
O2063       O  0.63582400  0.62887056  0.89048029    -0.78900
C2064       C  0.64619473  0.61982885  0.87671786     1.01700
Cr2065     Cr  0.64914865  0.66111612  0.85944188     1.93700
Cr2066     Cr  0.67557979  0.68359030  0.89040273     1.93200
Cr2067     Cr  0.64192577  0.65523140  0.90568847     1.39100
O2068       O  0.65537915  0.66658412  0.88519083    -1.24000
O2069       O  0.83160210  0.68868440  0.65984515    -0.86200
O2070       O  0.84416367  0.65531064  0.63637765    -0.83300
C2071       C  0.85998596  0.65836752  0.62508631     0.97300
O2072       O  0.87714195  0.66123070  0.63343499    -0.83300
O2073       O  0.90081109  0.68344537  0.65976118    -0.85900
C2074       C  0.89466458  0.70198004  0.66115947     1.01800
O2075       O  0.87750540  0.70611651  0.66906556    -0.78700
O2076       O  0.84033385  0.69955552  0.68950144    -0.78900
C2077       C  0.83319151  0.70356735  0.67227517     1.01700
O2078       O  0.83063616  0.66111748  0.69859642    -0.86200
O2079       O  0.84432932  0.62909836  0.67336016    -0.83300
C2080       C  0.85987862  0.61824312  0.66883624     0.97300
O2081       O  0.87595004  0.62673721  0.66177655    -0.83300
O2082       O  0.89797938  0.65019359  0.68923049    -0.85900
C2083       C  0.90401213  0.66469921  0.70051914     1.01700
O2084       O  0.89676098  0.68217746  0.69813017    -0.78700
O2085       O  0.85959426  0.67028770  0.71360652    -0.78900
C2086       C  0.84187075  0.66275558  0.71487687     1.01700
Cr2087     Cr  0.83916387  0.65923979  0.66752849     1.93700
Cr2088     Cr  0.88624035  0.65613047  0.66185728     1.93200
Cr2089     Cr  0.86809486  0.68788033  0.69106374     1.39100
O2090       O  0.86442401  0.66728672  0.67328436    -1.24000
O2091       O  0.65364166  0.84186931  0.69732519    -0.86200
O2092       O  0.62081141  0.85929360  0.67403769    -0.83300
C2093       C  0.61038962  0.87366626  0.66598560     0.97300
O2094       O  0.61995695  0.88779582  0.65654879    -0.83300
O2095       O  0.63804515  0.91050487  0.68775094    -0.85900
C2096       C  0.65067303  0.91532999  0.70153051     1.01800
O2097       O  0.66861018  0.90867132  0.70098346    -0.78700
O2098       O  0.65830427  0.87110217  0.71288967    -0.78900
C2099       C  0.65515538  0.85230267  0.71411018     1.01700
O2100       O  0.67958555  0.84465896  0.65931354    -0.86200
O2101       O  0.64603722  0.85904482  0.63599609    -0.83300
C2102       C  0.65169312  0.87428106  0.62476638     0.97300
O2103       O  0.65758368  0.89066320  0.63335993    -0.83300
O2104       O  0.67509980  0.91585675  0.66291574    -0.85900
C2105       C  0.69344310  0.91008438  0.66627881     1.01700
O2106       O  0.69718899  0.89259082  0.67338913    -0.78700
O2107       O  0.69095568  0.85392144  0.68925071    -0.78900
C2108       C  0.69417483  0.84555094  0.67214779     1.01700
Cr2109     Cr  0.65048316  0.85269565  0.66704775     1.93700
Cr2110     Cr  0.64843639  0.89959213  0.66102447     1.93200
Cr2111     Cr  0.67736658  0.88114018  0.69257179     1.39100
O2112       O  0.65879446  0.87775647  0.67315332    -1.24000
C2113       C  0.81321804  0.66572201  0.76639851    -0.02700
C2114       C  0.82740444  0.65648624  0.78001913     0.07000
C2115       C  0.84518347  0.64748007  0.77153489    -0.02800
C2116       C  0.84884833  0.64807028  0.75010312    -0.02800
C2117       C  0.83487621  0.65760882  0.73641745     0.07100
C2118       C  0.81672646  0.66593833  0.74482416    -0.03000
Br2119     Br  0.79680270  0.67819176  0.72691520    -0.01600
Br2120     Br  0.78951974  0.67956646  0.77746498    -0.01600
Br2121     Br  0.87309549  0.63488870  0.73960048    -0.01600
Br2122     Br  0.86444274  0.63340458  0.78904778    -0.01600
C2123       C  0.74249286  0.64605685  0.82974657    -0.02700
C2124       C  0.75813931  0.65493827  0.84223847     0.07000
C2125       C  0.75271930  0.66936130  0.85733259    -0.02800
C2126       C  0.73205613  0.67483753  0.85988216    -0.02800
C2127       C  0.71631259  0.66354675  0.84978692     0.07100
C2128       C  0.72166940  0.64960686  0.83421985    -0.03000
Br2129     Br  0.70078029  0.63380001  0.82042428    -0.01600
Br2130     Br  0.74911287  0.62803058  0.80693004    -0.01600
Br2131     Br  0.72554274  0.69757511  0.87793555    -0.01600
Br2132     Br  0.77274636  0.67891154  0.87699053    -0.01600
C2133       C  0.66425678  0.84968668  0.77222542    -0.02700
C2134       C  0.65033056  0.83437355  0.77865083     0.07000
C2135       C  0.64099961  0.82204299  0.76291307    -0.02800
C2136       C  0.64210657  0.82775089  0.74192269    -0.02800
C2137       C  0.65513252  0.84376195  0.73568302     0.07100
C2138       C  0.66753210  0.85340415  0.75101565    -0.03000
Br2139     Br  0.69037928  0.87079451  0.74319720    -0.01600
Br2140     Br  0.68022518  0.86470457  0.79221900    -0.01600
Br2141     Br  0.62485695  0.81419611  0.72199708    -0.01600
Br2142     Br  0.62796144  0.79609282  0.76880119    -0.01600
C2143       C  0.65765264  0.76432607  0.85992378    -0.02700
C2144       C  0.64363860  0.76967568  0.84452904     0.07000
C2145       C  0.63502543  0.75371860  0.83216339    -0.02800
C2146       C  0.63949208  0.73290076  0.83597493    -0.02800
C2147       C  0.65249022  0.72738627  0.85227777     0.07100
C2148       C  0.66215014  0.74346053  0.86380301    -0.03000
Br2149     Br  0.68129262  0.73793429  0.88572402    -0.01600
Br2150     Br  0.66984856  0.78549884  0.87674096    -0.01600
Br2151     Br  0.62860219  0.71213651  0.81769349    -0.01600
Br2152     Br  0.61704450  0.75975892  0.80931934    -0.01600
C2153       C  0.82149505  0.76142024  0.67682161    -0.02700
C2154       C  0.82880369  0.76901101  0.65791593     0.07000
C2155       C  0.83829427  0.75499306  0.64419107    -0.02800
C2156       C  0.83854399  0.73365338  0.64818133    -0.02800
C2157       C  0.83002227  0.72577100  0.66656571     0.07100
C2158       C  0.82206130  0.74004997  0.68112108    -0.03000
Br2159     Br  0.81098350  0.73048887  0.70688360    -0.01600
Br2160     Br  0.81064287  0.78023465  0.69691548    -0.01600
Br2161     Br  0.85169849  0.71565101  0.62851827    -0.01600
Br2162     Br  0.85232610  0.76528685  0.62020465    -0.01600
C2163       C  0.74829820  0.82436083  0.67889700    -0.02700
C2164       C  0.75952841  0.83666737  0.66494963     0.07000
C2165       C  0.74863056  0.85105890  0.65317320    -0.02800
C2166       C  0.72699591  0.85109522  0.65303829    -0.02800
C2167       C  0.71575159  0.83936668  0.66728863     0.07100
C2168       C  0.72664863  0.82609876  0.68045130    -0.03000
Br2169     Br  0.71167344  0.80958239  0.69993778    -0.01600
Br2170     Br  0.76283177  0.80698731  0.69761033    -0.01600
Br2171     Br  0.71273572  0.86672469  0.63272260    -0.01600
Br2172     Br  0.76321542  0.87233983  0.63901637    -0.01600
C2173       C  0.64310110  0.56327521  0.89524176    -0.02700
C2174       C  0.65266659  0.55211300  0.87912683     0.07000
C2175       C  0.65688212  0.56298513  0.86067426    -0.02800
C2176       C  0.65385517  0.58466540  0.85943088    -0.02800
C2177       C  0.64737625  0.59631126  0.87683309     0.07100
C2178       C  0.64179843  0.58499436  0.89478536    -0.03000
Br2179     Br  0.63386626  0.59840480  0.92024769    -0.01600
Br2180     Br  0.63031216  0.54885749  0.91795451    -0.01600
Br2181     Br  0.65843961  0.59788430  0.83332714    -0.01600
Br2182     Br  0.66657981  0.54852296  0.83658083    -0.01600
C2183       C  0.73834502  0.56674246  0.85852387    -0.02700
C2184       C  0.73929667  0.54588918  0.85343572     0.07000
C2185       C  0.75717341  0.53772617  0.84450661    -0.02800
C2186       C  0.77484086  0.54991182  0.84293261    -0.02800
C2187       C  0.77463433  0.57012705  0.85070606     0.07100
C2188       C  0.75635299  0.57848927  0.85864089    -0.03000
Br2189     Br  0.75617493  0.60519327  0.87134780    -0.01600
Br2190     Br  0.71230589  0.57891269  0.86510634    -0.01600
Br2191     Br  0.79969145  0.53841021  0.83169120    -0.01600
Br2192     Br  0.75728601  0.50955262  0.83514601    -0.01600
C2193       C  0.55005106  0.65793237  0.89417696    -0.02700
C2194       C  0.54023681  0.66717957  0.87720971     0.07000
C2195       C  0.55238506  0.67141952  0.85960698    -0.02800
C2196       C  0.57406686  0.66949178  0.86026317    -0.02800
C2197       C  0.58411554  0.66303737  0.87839704     0.07100
C2198       C  0.57170127  0.65662573  0.89516427    -0.03000
Br2199     Br  0.58396027  0.64569620  0.91982083    -0.01600
Br2200     Br  0.53364123  0.64518885  0.91539879    -0.01600
Br2201     Br  0.58984332  0.67734678  0.83649499    -0.01600
Br2202     Br  0.53976881  0.67974743  0.83420316    -0.01600
C2203       C  0.55380745  0.75108411  0.85780051    -0.02700
C2204       C  0.53521954  0.75034637  0.84689147     0.07000
C2205       C  0.53009445  0.76666257  0.83373390    -0.02800
C2206       C  0.54237558  0.78441293  0.83297758    -0.02800
C2207       C  0.56007457  0.78600494  0.84532761     0.07100
C2208       C  0.56621483  0.76888508  0.85708143    -0.03000
Br2209     Br  0.59176006  0.76943403  0.87182023    -0.01600
Br2210     Br  0.56170480  0.72796163  0.87439585    -0.01600
Br2211     Br  0.53440565  0.80691929  0.81544892    -0.01600
Br2212     Br  0.50556382  0.76483132  0.81729394    -0.01600
C2213       C  0.87196840  0.56703335  0.69505280    -0.02700
C2214       C  0.86145990  0.55205736  0.68336295     0.07000
C2215       C  0.84845861  0.55930744  0.66753335    -0.02800
C2216       C  0.84738216  0.58083357  0.66292556    -0.02800
C2217       C  0.86011180  0.59529284  0.67324950     0.07100
C2218       C  0.87307670  0.58768390  0.68874077    -0.03000
Br2219     Br  0.89350920  0.60492487  0.70111661    -0.01600
Br2220     Br  0.88087540  0.56062524  0.72240897    -0.01600
Br2221     Br  0.82952460  0.59037608  0.64155834    -0.01600
Br2222     Br  0.83174657  0.54000163  0.65262264    -0.01600
C2223       C  0.85875854  0.54926357  0.77935129    -0.02700
C2224       C  0.84509781  0.54378536  0.76326355     0.07000
C2225       C  0.82710938  0.55534911  0.76014236    -0.02800
C2226       C  0.82265044  0.57184581  0.77333910    -0.02800
C2227       C  0.83640326  0.57688693  0.78931584     0.07100
C2228       C  0.85486472  0.56641190  0.79147737    -0.03000
Br2229     Br  0.87506140  0.57574961  0.81119971    -0.01600
Br2230     Br  0.88225138  0.53319475  0.78699475    -0.01600
Br2231     Br  0.79696405  0.58630729  0.77030845    -0.01600
Br2232     Br  0.80708914  0.54715072  0.73981410    -0.01600
C2233       C  0.64568300  0.89256031  0.56840673    -0.02700
C2234       C  0.65496183  0.87662984  0.55681275     0.07000
C2235       C  0.65927741  0.85806399  0.56755660    -0.02800
C2236       C  0.65802790  0.85702524  0.58946926    -0.02800
C2237       C  0.65097736  0.87392080  0.60124403     0.07100
C2238       C  0.64373918  0.89127457  0.59019181    -0.03000
Br2239     Br  0.62998328  0.91321776  0.60470800    -0.01600
Br2240     Br  0.63333538  0.91528396  0.55408396    -0.01600
Br2241     Br  0.66725633  0.83266252  0.60337131    -0.01600
Br2242     Br  0.66566001  0.83323060  0.55271079    -0.01600
C2243       C  0.73476019  0.83271190  0.56058449    -0.02700
C2244       C  0.72901862  0.85325951  0.55833207     0.07000
C2245       C  0.73851003  0.86860776  0.57016758    -0.02800
C2246       C  0.75642719  0.86429250  0.58082323    -0.02800
C2247       C  0.76261101  0.84385122  0.58280186     0.07100
C2248       C  0.75151474  0.82789142  0.57305479    -0.03000
Br2249     Br  0.76069456  0.79986042  0.57412593    -0.01600
Br2250     Br  0.72028063  0.81156312  0.54563983    -0.01600
Br2251     Br  0.77368473  0.88659874  0.59002154    -0.01600
Br2252     Br  0.72620482  0.89505228  0.57313490    -0.01600
C2253       C  0.55389602  0.89376350  0.66859706    -0.02700
C2254       C  0.54227860  0.87566959  0.67252604     0.07000
C2255       C  0.55306057  0.85674415  0.67125322    -0.02800
C2256       C  0.57486286  0.85601321  0.66936646    -0.02800
C2257       C  0.58678641  0.87423476  0.66733989     0.07100
C2258       C  0.57568453  0.89310626  0.66613983    -0.03000
Br2259     Br  0.58993256  0.91893834  0.66218673    -0.01600
Br2260     Br  0.54031313  0.91996780  0.66623312    -0.01600
Br2261     Br  0.58796950  0.82944644  0.66904490    -0.01600
Br2262     Br  0.53772555  0.83134958  0.66989372    -0.01600
C2263       C  0.54393998  0.87333388  0.77523735    -0.02700
C2264       C  0.54052546  0.86087578  0.75757026     0.07000
C2265       C  0.55223192  0.84304181  0.75448197    -0.02800
C2266       C  0.56619040  0.83700548  0.76960484    -0.02800
C2267       C  0.57055600  0.85025062  0.78627404     0.07100
C2268       C  0.56006500  0.86887648  0.78842034    -0.03000
Br2269     Br  0.56750229  0.88841358  0.80956624    -0.01600
Br2270     Br  0.52538517  0.89510247  0.78368536    -0.01600
Br2271     Br  0.57673347  0.80943536  0.76871000    -0.01600
Br2272     Br  0.54945083  0.82683460  0.72976243    -0.01600
C2273       C  0.87915839  0.65991550  0.56890863    -0.02700
C2274       C  0.86208301  0.66774492  0.55799841     0.07000
C2275       C  0.84298364  0.66793226  0.56865147    -0.02800
C2276       C  0.84194495  0.66537929  0.59035286    -0.02800
C2277       C  0.85937248  0.65902955  0.60158853     0.07100
C2278       C  0.87732622  0.65433942  0.58995814    -0.03000
Br2279     Br  0.89917875  0.63854033  0.60217872    -0.01600
Br2280     Br  0.90550612  0.65667074  0.55570279    -0.01600
Br2281     Br  0.81664194  0.67180113  0.60426657    -0.01600
Br2282     Br  0.81766828  0.66892090  0.55336534    -0.01600
C2283       C  0.82303623  0.75018603  0.55850148    -0.02700
C2284       C  0.83423644  0.75601017  0.54102953     0.07000
C2285       C  0.83716546  0.77702624  0.53657296    -0.02800
C2286       C  0.83096276  0.79199445  0.55073737    -0.02800
C2287       C  0.82240040  0.78599316  0.56961212     0.07100
C2288       C  0.81677737  0.76519734  0.57271681    -0.03000
Br2289     Br  0.80086054  0.75676913  0.59633356    -0.01600
Br2290     Br  0.81760533  0.72166742  0.56378668    -0.01600
Br2291     Br  0.83258985  0.82070408  0.54353588    -0.01600
Br2292     Br  0.84985932  0.78554834  0.51112968    -0.01600
C2293       C  0.15876638  0.33268243  0.26599448    -0.02700
C2294       C  0.14957250  0.34702768  0.27941210     0.07000
C2295       C  0.14263588  0.36575614  0.27151813    -0.02800
C2296       C  0.14321609  0.36958942  0.25027558    -0.02800
C2297       C  0.15147211  0.35484131  0.23635351     0.07100
C2298       C  0.15998378  0.33662915  0.24459392    -0.03000
Br2299     Br  0.17430988  0.31751652  0.22704693    -0.01600
Br2300     Br  0.16962088  0.30761886  0.27723202    -0.01600
Br2301     Br  0.13160348  0.39512603  0.24078532    -0.01600
Br2302     Br  0.13161652  0.38605102  0.29020152    -0.01600
C2303       C  0.16652150  0.24831393  0.36280138    -0.02700
C2304       C  0.15643965  0.23263146  0.35117148     0.07000
C2305       C  0.14485456  0.23860559  0.33402840    -0.02800
C2306       C  0.14143335  0.25960791  0.32982975    -0.02800
C2307       C  0.15002782  0.27538279  0.34256800     0.07100
C2308       C  0.16363353  0.26936819  0.35819969    -0.03000
Br2309     Br  0.18030198  0.28981796  0.37185667    -0.01600
Br2310     Br  0.18434053  0.24187409  0.38553939    -0.01600
Br2311     Br  0.12522060  0.26563853  0.30576952    -0.01600
Br2312     Br  0.13523287  0.21793911  0.31486050    -0.01600
C2313       C  0.33281022  0.17780078  0.26848481    -0.02700
C2314       C  0.32259508  0.15963750  0.27441677     0.07000
C2315       C  0.31298179  0.14768301  0.25865057    -0.02800
C2316       C  0.31758720  0.15103915  0.23776286    -0.02800
C2317       C  0.32978183  0.16775160  0.23196709     0.07100
C2318       C  0.33549857  0.18222132  0.24732974    -0.03000
Br2319     Br  0.34635030  0.20855052  0.23924487    -0.01600
Br2320     Br  0.34382006  0.19631881  0.28884027    -0.01600
Br2321     Br  0.30832573  0.13182359  0.21733286    -0.01600
Br2322     Br  0.29257706  0.12693701  0.26495473    -0.01600
C2323       C  0.25337465  0.17710475  0.35442817    -0.02700
C2324       C  0.25943315  0.16499089  0.33750126     0.07000
C2325       C  0.24381244  0.15873220  0.32333442    -0.02800
C2326       C  0.22280426  0.16034081  0.32865079    -0.02800
C2327       C  0.21710257  0.16940294  0.34739405     0.07100
C2328       C  0.23242772  0.17970297  0.35903460    -0.03000
Br2329     Br  0.22489967  0.19864912  0.38079680    -0.01600
Br2330     Br  0.27340681  0.19183350  0.37047630    -0.01600
Br2331     Br  0.20195195  0.15008826  0.31027429    -0.01600
Br2332     Br  0.25014081  0.14917664  0.29590477    -0.01600
C2333       C  0.31876581  0.23670553  0.15233006    -0.02700
C2334       C  0.33384836  0.23105098  0.16668894     0.07000
C2335       C  0.34328728  0.24696573  0.17858842    -0.02800
C2336       C  0.33711026  0.26763261  0.17666351    -0.02800
C2337       C  0.32304513  0.27342398  0.16147189     0.07100
C2338       C  0.31324686  0.25754100  0.14982310    -0.03000
Br2339     Br  0.29122482  0.26309553  0.13078078    -0.01600
Br2340     Br  0.30491577  0.21599609  0.13612124    -0.01600
Br2341     Br  0.34578132  0.28754500  0.19697006    -0.01600
Br2342     Br  0.36601995  0.24177108  0.19684198    -0.01600
C2343       C  0.24291340  0.32416943  0.15222871    -0.02700
C2344       C  0.25827316  0.33696857  0.16112115     0.07000
C2345       C  0.25265078  0.35104430  0.17637663    -0.02800
C2346       C  0.23191048  0.35294765  0.18217684    -0.02800
C2347       C  0.21611251  0.34261053  0.17082679     0.07100
C2348       C  0.22197506  0.32750906  0.15644038    -0.03000
Br2349     Br  0.20161144  0.31041593  0.14318580    -0.01600
Br2350     Br  0.25027499  0.30144482  0.13445860    -0.01600
Br2351     Br  0.22645057  0.36943170  0.20635757    -0.01600
Br2352     Br  0.27314003  0.36907109  0.18810251    -0.01600
C2353       C  0.04942611  0.16829737  0.39216669    -0.02700
C2354       C  0.03971891  0.17470537  0.37375729     0.07000
C2355       C  0.05239021  0.17668568  0.35601568    -0.02800
C2356       C  0.07410630  0.17522759  0.35723573    -0.02800
C2357       C  0.08392827  0.16960997  0.37577763     0.07100
C2358       C  0.07108047  0.16562112  0.39310722    -0.03000
Br2359     Br  0.08266555  0.15623452  0.41876171    -0.01600
Br2360     Br  0.03350618  0.16303517  0.41671148    -0.01600
Br2361     Br  0.09017190  0.18311318  0.33356493    -0.01600
Br2362     Br  0.04019678  0.17983198  0.32919038    -0.01600
C2363       C  0.03691408  0.27531322  0.37041465    -0.02700
C2364       C  0.03256211  0.25912590  0.35638086     0.07000
C2365       C  0.04423929  0.25716205  0.33827646    -0.02800
C2366       C  0.06015072  0.27124250  0.33442244    -0.02800
C2367       C  0.06598443  0.28551679  0.34977008     0.07100
C2368       C  0.05448746  0.28719022  0.36790603    -0.03000
Br2369     Br  0.06271772  0.30575421  0.38963663    -0.01600
Br2370     Br  0.01821892  0.28298373  0.39244480    -0.01600
Br2371     Br  0.07191931  0.27241466  0.30728132    -0.01600
Br2372     Br  0.03888643  0.23542277  0.31880999    -0.01600
C2373       C  0.34013183  0.06689521  0.17524808    -0.02700
C2374       C  0.35793502  0.05487029  0.17153359     0.07000
C2375       C  0.37449922  0.06478032  0.16152677    -0.02800
C2376       C  0.37515860  0.08647251  0.15920164    -0.02800
C2377       C  0.35789372  0.09901595  0.16433905     0.07100
C2378       C  0.33984064  0.08838832  0.17079157    -0.03000
Br2379     Br  0.31390536  0.10248619  0.17225520    -0.01600
Br2380     Br  0.31574307  0.05442865  0.18658913    -0.01600
Br2381     Br  0.40082857  0.09797426  0.14952551    -0.01600
Br2382     Br  0.39593530  0.04828623  0.14923788    -0.01600
C2383       C  0.31636222  0.04492741  0.27077928    -0.02700
C2384       C  0.32957376  0.04997731  0.25452555     0.07000
C2385       C  0.34140067  0.06807171  0.25548576    -0.02800
C2386       C  0.34152356  0.07992345  0.27360271    -0.02800
C2387       C  0.32953628  0.07385384  0.29060541     0.07100
C2388       C  0.31661160  0.05651019  0.28891183    -0.03000
Br2389     Br  0.29956630  0.04810195  0.31170734    -0.01600
Br2390     Br  0.29865761  0.02124867  0.26820866    -0.01600
Br2391     Br  0.35772650  0.10457118  0.27475876    -0.01600
Br2392     Br  0.35750013  0.07648496  0.23204496    -0.01600
C2393       C  0.15831290  0.35148625  0.06798899    -0.02700
C2394       C  0.15842761  0.37000918  0.05620439     0.07000
C2395       C  0.15036711  0.38775222  0.06610252    -0.02800
C2396       C  0.14480518  0.38748193  0.08729728    -0.02800
C2397       C  0.14851042  0.36999063  0.09995661     0.07100
C2398       C  0.15388306  0.35156610  0.08953320    -0.03000
Br2399     Br  0.15476069  0.32590166  0.10428301    -0.01600
Br2400     Br  0.16310401  0.32522941  0.05481418    -0.01600
Br2401     Br  0.13042269  0.41119308  0.09817617    -0.01600
Br2402     Br  0.14665616  0.41310534  0.05116231    -0.01600
C2403       C  0.25773442  0.35365590  0.08432293    -0.02700
C2404       C  0.27703392  0.34881053  0.07585911     0.07000
C2405       C  0.27836452  0.34031692  0.05604828    -0.02800
C2406       C  0.26049062  0.33607596  0.04501063    -0.02800
C2407       C  0.24145523  0.34264035  0.05267898     0.07100
C2408       C  0.23991430  0.34988091  0.07293663    -0.03000
Br2409     Br  0.21310433  0.35466887  0.08452895    -0.01600
Br2410     Br  0.25574422  0.36638319  0.11100786    -0.01600
Br2411     Br  0.26201386  0.32111769  0.01948280    -0.01600
Br2412     Br  0.30486063  0.33417495  0.04431927    -0.01600
C2413       C  0.13904168  0.06539018  0.37599338    -0.02700
C2414       C  0.15953814  0.05849401  0.37653965     0.07000
C2415       C  0.17521566  0.07361171  0.37555574    -0.02800
C2416       C  0.17076277  0.09445854  0.37162566    -0.02800
C2417       C  0.15035416  0.10151197  0.37172369     0.07100
C2418       C  0.13448208  0.08676210  0.37433358    -0.03000
Br2419     Br  0.10644320  0.09580159  0.37569089    -0.01600
Br2420     Br  0.11734087  0.04558630  0.37910894    -0.01600
Br2421     Br  0.19314829  0.11360478  0.36763868    -0.01600
Br2422     Br  0.20273473  0.06713237  0.38320651    -0.01600
C2423       C  0.25951780  0.04859159  0.36640715    -0.02700
C2424       C  0.24153839  0.04610761  0.35434566     0.07000
C2425       C  0.23693867  0.06115083  0.33943124    -0.02800
C2426       C  0.25093428  0.07731740  0.33586168    -0.02800
C2427       C  0.26756326  0.08046773  0.34948402     0.07100
C2428       C  0.27036949  0.06699302  0.36587104    -0.03000
Br2429     Br  0.28869771  0.07390830  0.38815009    -0.01600
Br2430     Br  0.27224977  0.02669624  0.38164045    -0.01600
Br2431     Br  0.24816252  0.09341353  0.31117070    -0.01600
Br2432     Br  0.21263318  0.05913326  0.32266196    -0.01600
C2433       C  0.05809325  0.37352093  0.19813021    -0.02700
C2434       C  0.04274539  0.37547373  0.18289908     0.07000
C2435       C  0.04940400  0.37626385  0.16218775    -0.02800
C2436       C  0.07076319  0.37528594  0.15713586    -0.02800
C2437       C  0.08577980  0.37227972  0.17258037     0.07100
C2438       C  0.07889016  0.37026636  0.19297526    -0.03000
Br2439     Br  0.09795967  0.36314206  0.21429480    -0.01600
Br2440     Br  0.05187105  0.37945748  0.22625495    -0.01600
Br2441     Br  0.07945880  0.37683964  0.12891131    -0.01600
Br2442     Br  0.02929592  0.37873149  0.14081514    -0.01600
C2443       C  0.04291494  0.33915887  0.26137111    -0.02700
C2444       C  0.02773861  0.35345839  0.26677116     0.07000
C2445       C  0.02742098  0.36200591  0.28678542    -0.02800
C2446       C  0.04307018  0.35771454  0.30065671    -0.02800
C2447       C  0.05979845  0.34567469  0.29438018     0.07100
C2448       C  0.05929812  0.33566796  0.27490717    -0.03000
Br2449     Br  0.08112754  0.31765618  0.26593457    -0.01600
Br2450     Br  0.04175790  0.32490909  0.23529398    -0.01600
Br2451     Br  0.04021916  0.36693838  0.32879688    -0.01600
Br2452     Br  0.00528184  0.37944793  0.29591578    -0.01600
C2453       C  0.38162804  0.16718106  0.06513368    -0.02700
C2454       C  0.36422945  0.17502477  0.05480764     0.07000
C2455       C  0.34566010  0.17590157  0.06632554    -0.02800
C2456       C  0.34529489  0.17205517  0.08794374    -0.02800
C2457       C  0.36335678  0.16664876  0.09881340     0.07100
C2458       C  0.38126490  0.16309569  0.08666570    -0.03000
Br2459     Br  0.40542180  0.15117239  0.09890087    -0.01600
Br2460     Br  0.40569118  0.16004219  0.04928491    -0.01600
Br2461     Br  0.31966714  0.17491645  0.10242189    -0.01600
Br2462     Br  0.32019661  0.18241735  0.05290645    -0.01600
C2463       C  0.30857573  0.27639406  0.06770043    -0.02700
C2464       C  0.32590020  0.28086316  0.07996266     0.07000
C2465       C  0.34221300  0.26692257  0.08048777    -0.02800
C2466       C  0.34221041  0.25004458  0.06707205    -0.02800
C2467       C  0.32728979  0.24881368  0.05153884     0.07100
C2468       C  0.30984377  0.26112024  0.05263791    -0.03000
Br2469     Br  0.28751975  0.25631050  0.03393778    -0.01600
Br2470     Br  0.28246395  0.28914181  0.07226103    -0.01600
Br2471     Br  0.36171674  0.22828596  0.07070973    -0.01600
Br2472     Br  0.36441774  0.27118865  0.09939044    -0.01600
C2473       C  0.14571782  0.91729863  0.39366054    -0.02700
C2474       C  0.14712875  0.90605714  0.37481166     0.07000
C2475       C  0.15031826  0.91783315  0.35674034    -0.02800
C2476       C  0.15360476  0.93953299  0.35767097    -0.02800
C2477       C  0.15464179  0.95029800  0.37676519     0.07100
C2478       C  0.14963597  0.93886823  0.39465612    -0.03000
Br2479     Br  0.14827048  0.95228017  0.42120351    -0.01600
Br2480     Br  0.13862020  0.90368170  0.41898259    -0.01600
Br2481     Br  0.15501459  0.95461076  0.33216885    -0.01600
Br2482     Br  0.14889105  0.90468888  0.33014022    -0.01600
C2483       C  0.34048194  0.91680812  0.17205179    -0.02700
C2484       C  0.35835866  0.90570489  0.16676523     0.07000
C2485       C  0.37666381  0.91730543  0.16371432    -0.02800
C2486       C  0.37808000  0.93814933  0.17004802    -0.02800
C2487       C  0.36028734  0.94924398  0.17596112     0.07100
C2488       C  0.34122888  0.93848323  0.17497713    -0.03000
Br2489     Br  0.31560756  0.95323677  0.17647446    -0.01600
Br2490     Br  0.31489319  0.90263011  0.17653237    -0.01600
Br2491     Br  0.40512000  0.95017830  0.17206402    -0.01600
Br2492     Br  0.39986294  0.90537213  0.14937623    -0.01600
C2493       C  0.33830356  0.94138540  0.25854858    -0.02700
C2494       C  0.33977981  0.96220770  0.26389405     0.07000
C2495       C  0.34216410  0.96789355  0.28477144    -0.02800
C2496       C  0.34281653  0.95287675  0.30008346    -0.02800
C2497       C  0.34192374  0.93208207  0.29462412     0.07100
C2498       C  0.34071284  0.92637135  0.27374266    -0.03000
Br2499     Br  0.34464263  0.89822216  0.26573815    -0.01600
Br2500     Br  0.33295973  0.93348414  0.23051974    -0.01600
Br2501     Br  0.34466525  0.96070275  0.32866322    -0.01600
Br2502     Br  0.34502784  0.99631430  0.29266397    -0.01600
C2503       C  0.27316916  0.94109161  0.36831231    -0.02700
C2504       C  0.27423922  0.93291351  0.34849854     0.07000
C2505       C  0.26039550  0.93923422  0.33322067    -0.02800
C2506       C  0.24347675  0.95133761  0.33862960    -0.02800
C2507       C  0.24236003  0.95971583  0.35858251     0.07100
C2508       C  0.25854256  0.95591880  0.37277835    -0.03000
Br2509     Br  0.26291662  0.97181239  0.39772370    -0.01600
Br2510     Br  0.29100779  0.93141086  0.38984025    -0.01600
Br2511     Br  0.22195843  0.95545122  0.31882201    -0.01600
Br2512     Br  0.26576840  0.93315770  0.30468442    -0.01600
C2513       C  0.24221340  0.86101795  0.32999488    -0.02700
C2514       C  0.25793092  0.84884591  0.33924204     0.07000
C2515       C  0.25180267  0.83130809  0.35034361    -0.02800
C2516       C  0.23076444  0.82670658  0.35286550    -0.02800
C2517       C  0.21539497  0.84056597  0.34631107     0.07100
C2518       C  0.22125239  0.85744424  0.33439364    -0.03000
Br2519     Br  0.20053068  0.87631080  0.32503081    -0.01600
Br2520     Br  0.24826779  0.88279474  0.31101398    -0.01600
Br2521     Br  0.22301706  0.80058783  0.36439270    -0.01600
Br2522     Br  0.27199048  0.81280163  0.36139556    -0.01600
C2523       C  0.31587046  0.85164582  0.24011428    -0.02700
C2524       C  0.33159618  0.83791114  0.23441559     0.07000
C2525       C  0.34175379  0.82676056  0.25043157    -0.02800
C2526       C  0.33757019  0.83093847  0.27135944    -0.02800
C2527       C  0.32313521  0.84587493  0.27674645     0.07100
C2528       C  0.31130562  0.85508014  0.26102580    -0.03000
Br2529     Br  0.28825907  0.87239798  0.26810830    -0.01600
Br2530     Br  0.29999930  0.86580033  0.21961070    -0.01600
Br2531     Br  0.35219914  0.81676206  0.29276482    -0.01600
Br2532     Br  0.36237199  0.80614127  0.24495837    -0.01600
C2533       C  0.13452103  0.74671141  0.32710800    -0.02700
C2534       C  0.14547222  0.73138846  0.33827062     0.07000
C2535       C  0.16002121  0.73794451  0.35282203    -0.02800
C2536       C  0.16327121  0.75912829  0.35665771    -0.02800
C2537       C  0.15150178  0.77455038  0.34634862     0.07100
C2538       C  0.13728598  0.76792477  0.33138818    -0.03000
Br2539     Br  0.12166760  0.78780618  0.31601511    -0.01600
Br2540     Br  0.11468126  0.73945556  0.30615044    -0.01600
Br2541     Br  0.18359275  0.76577502  0.37732799    -0.01600
Br2542     Br  0.17628646  0.71783404  0.36735654    -0.01600
C2543       C  0.15909930  0.66647688  0.26649649    -0.02700
C2544       C  0.14028866  0.65945806  0.27475088     0.07000
C2545       C  0.12524128  0.65192421  0.26084597    -0.02800
C2546       C  0.12808771  0.65355358  0.23949904    -0.02800
C2547       C  0.14747605  0.65811992  0.23145505     0.07100
C2548       C  0.16311829  0.66441240  0.24513777    -0.03000
Br2549     Br  0.18995990  0.67047839  0.23445286    -0.01600
Br2550     Br  0.17880825  0.68001438  0.28388990    -0.01600
Br2551     Br  0.10510913  0.65092951  0.22112148    -0.01600
Br2552     Br  0.10097715  0.63801044  0.27073432    -0.01600
C2553       C  0.30791028  0.74609024  0.16034342    -0.02700
C2554       C  0.32068541  0.73044876  0.16855831     0.07000
C2555       C  0.33616674  0.73607944  0.18241228    -0.02800
C2556       C  0.34073423  0.75702329  0.18559946    -0.02800
C2557       C  0.33046321  0.77250007  0.17419081     0.07100
C2558       C  0.31301005  0.76701300  0.16282507    -0.03000
Br2559     Br  0.29671729  0.78781921  0.14960270    -0.01600
Br2560     Br  0.28327343  0.73905763  0.14540359    -0.01600
Br2561     Br  0.36105803  0.76420972  0.20599033    -0.01600
Br2562     Br  0.35208825  0.71532764  0.19601688    -0.01600
C2563       C  0.24490788  0.67777087  0.17669552    -0.02700
C2564       C  0.25761223  0.66286958  0.16713811     0.07000
C2565       C  0.24817904  0.64733191  0.15515321    -0.02800
C2566       C  0.22667742  0.64716990  0.15237788    -0.02800
C2567       C  0.21406293  0.66098454  0.16329354     0.07100
C2568       C  0.22336192  0.67669054  0.17486838    -0.03000
Br2569     Br  0.20622048  0.69760162  0.18690247    -0.01600
Br2570     Br  0.25691043  0.69948376  0.19299464    -0.01600
Br2571     Br  0.21460341  0.62933458  0.13208052    -0.01600
Br2572     Br  0.26443842  0.62621951  0.14220108    -0.01600
C2573       C  0.25424074  0.44360836  0.06999516    -0.02700
C2574       C  0.25700768  0.46297807  0.06059048     0.07000
C2575       C  0.24376258  0.46853217  0.04427026    -0.02800
C2576       C  0.22834843  0.45499827  0.03744643    -0.02800
C2577       C  0.22596141  0.43564738  0.04657324     0.07100
C2578       C  0.23855513  0.43032284  0.06317756    -0.03000
Br2579     Br  0.23385988  0.40454971  0.07655509    -0.01600
Br2580     Br  0.27110677  0.43505001  0.09263452    -0.01600
Br2581     Br  0.21099141  0.46240083  0.01468634    -0.01600
Br2582     Br  0.24701627  0.49445447  0.03036207    -0.01600
C2583       C  0.32317938  0.43776752  0.14538729    -0.02700
C2584       C  0.32045044  0.44687712  0.12581257     0.07000
C2585       C  0.32404981  0.43429111  0.10834129    -0.02800
C2586       C  0.32714161  0.41276826  0.11037902    -0.02800
C2587       C  0.32745374  0.40317940  0.13006088     0.07100
C2588       C  0.32671735  0.41628146  0.14749231    -0.03000
Br2589     Br  0.33244554  0.40525995  0.17431532    -0.01600
Br2590     Br  0.32405926  0.45517670  0.16942475    -0.01600
Br2591     Br  0.33023370  0.39682178  0.08541227    -0.01600
Br2592     Br  0.32470052  0.44609039  0.08112145    -0.01600
C2593       C  0.31467159  0.56296464  0.15060026    -0.02700
C2594       C  0.32109262  0.55309106  0.13203819     0.07000
C2595       C  0.33233503  0.56540318  0.11788580    -0.02800
C2596       C  0.33484757  0.58689681  0.12108809    -0.02800
C2597       C  0.32563989  0.59708377  0.13804383     0.07100
C2598       C  0.31621643  0.58471660  0.15318078    -0.03000
Br2599     Br  0.30417760  0.59762368  0.17701402    -0.01600
Br2600     Br  0.30423993  0.54713976  0.17327166    -0.01600
Br2601     Br  0.35189618  0.60247305  0.10236335    -0.01600
Br2602     Br  0.34551863  0.55309273  0.09426919    -0.01600
C2603       C  0.23620822  0.55417504  0.16411216    -0.02700
C2604       C  0.23462660  0.54478097  0.14463136     0.07000
C2605       C  0.21981923  0.55201387  0.13045201    -0.02800
C2606       C  0.20728605  0.56860099  0.13568422    -0.02800
C2607       C  0.20862666  0.57768651  0.15518099     0.07100
C2608       C  0.22384734  0.57118147  0.16905328    -0.03000
Br2609     Br  0.22745790  0.58488649  0.19513357    -0.01600
Br2610     Br  0.25225151  0.54152893  0.18539162    -0.01600
Br2611     Br  0.18868559  0.57951155  0.11559567    -0.01600
Br2612     Br  0.21513722  0.53917661  0.10394173    -0.01600
C2613       C  0.21800247  0.44673418  0.12112207    -0.02700
C2614       C  0.23450541  0.45311061  0.13401127     0.07000
C2615       C  0.23760777  0.44285569  0.15285000    -0.02800
C2616       C  0.22308015  0.42855118  0.15978983    -0.02800
C2617       C  0.20720842  0.42189483  0.14669848     0.07100
C2618       C  0.20554241  0.43014070  0.12693256    -0.03000
Br2619     Br  0.18614249  0.41854496  0.10776875    -0.01600
Br2620     Br  0.20998739  0.46150827  0.09663621    -0.01600
Br2621     Br  0.22365370  0.42042562  0.18823030    -0.01600
Br2622     Br  0.26172111  0.44761041  0.16943869    -0.01600
C2623       C  0.02430130  0.44289598  0.26918677    -0.02700
C2624       C  0.02745361  0.43605068  0.24837024     0.07000
C2625       C  0.04678993  0.43977718  0.23922843    -0.02800
C2626       C  0.06266033  0.44872897  0.25079927    -0.02800
C2627       C  0.05890342  0.45717161  0.27048195     0.07100
C2628       C  0.03961546  0.45423159  0.27956754    -0.03000
Br2629     Br  0.03353421  0.46726120  0.30563654    -0.01600
Br2630     Br  0.99924788  0.43795183  0.28457765    -0.01600
Br2631     Br  0.08996729  0.44862481  0.23957503    -0.01600
Br2632     Br  0.05201160  0.43439655  0.21041506    -0.01600
C2633       C  0.13880110  0.43917146  0.33722292    -0.02700
C2634       C  0.12019135  0.45002072  0.33450127     0.07000
C2635       C  0.10176471  0.43934976  0.33899991    -0.02800
C2636       C  0.10172768  0.41786558  0.34276012    -0.02800
C2637       C  0.12032535  0.40632842  0.34319556     0.07100
C2638       C  0.13893056  0.41765821  0.34130028    -0.03000
Br2639     Br  0.16501809  0.40429549  0.34518591    -0.01600
Br2640     Br  0.16425521  0.45433840  0.33799086    -0.01600
Br2641     Br  0.07525645  0.40492645  0.34636719    -0.01600
Br2642     Br  0.07600646  0.45390461  0.34071325    -0.01600
C2643       C  0.13519935  0.56718560  0.33035009    -0.02700
C2644       C  0.11811634  0.55483112  0.33588746     0.07000
C2645       C  0.10227054  0.56442266  0.34716883    -0.02800
C2646       C  0.10191415  0.58608273  0.35023153    -0.02800
C2647       C  0.11779520  0.59906321  0.34222654     0.07100
C2648       C  0.13469122  0.58898850  0.33258420    -0.03000
Br2649     Br  0.15691343  0.60456349  0.32051237    -0.01600
Br2650     Br  0.16006237  0.55451674  0.32049883    -0.01600
Br2651     Br  0.07895818  0.59707468  0.36558245    -0.01600
Br2652     Br  0.08174169  0.54729464  0.36016196    -0.01600
C2653       C  0.13254025  0.57740421  0.23245675    -0.02700
C2654       C  0.14738738  0.57186311  0.21776254     0.07000
C2655       C  0.16163179  0.55621288  0.22216409    -0.02800
C2656       C  0.16039468  0.54564283  0.24077928    -0.02800
C2657       C  0.14499214  0.55056781  0.25499224     0.07100
C2658       C  0.13205388  0.56734894  0.25145682    -0.03000
Br2659     Br  0.11383260  0.57638252  0.27281643    -0.01600
Br2660     Br  0.11258016  0.59821450  0.22652948    -0.01600
Br2661     Br  0.17888697  0.52336237  0.24657032    -0.01600
Br2662     Br  0.18198989  0.54812887  0.20213973    -0.01600
C2663       C  0.13831403  0.47021085  0.22345515    -0.02700
C2664       C  0.14650015  0.46730629  0.24332621     0.07000
C2665       C  0.16015551  0.45117604  0.24686834    -0.02800
C2666       C  0.16425900  0.43696694  0.23103824    -0.02800
C2667       C  0.15320518  0.43800022  0.21221900     0.07100
C2668       C  0.14075244  0.45509692  0.20830781    -0.03000
Br2669     Br  0.12711890  0.45819678  0.18216943    -0.01600
Br2670     Br  0.12350432  0.49494366  0.21682760    -0.01600
Br2671     Br  0.18421147  0.41572288  0.23619475    -0.01600
Br2672     Br  0.17185995  0.44773038  0.27381779    -0.01600
C2673       C  0.04378062  0.53623539  0.25216577    -0.02700
C2674       C  0.05548511  0.54267970  0.26922675     0.07000
C2675       C  0.05517862  0.56327800  0.27542776    -0.02800
C2676       C  0.04460487  0.57774333  0.26363345    -0.02800
C2677       C  0.03312437  0.57149460  0.24629401     0.07100
C2678       C  0.03241588  0.55057837  0.24086404    -0.03000
Br2679     Br  0.01497869  0.54134113  0.21876513    -0.01600
Br2680     Br  0.04260451  0.50764272  0.24461820    -0.01600
Br2681     Br  0.04663258  0.60623736  0.27102162    -0.01600
Br2682     Br  0.06853662  0.57138082  0.30062866    -0.01600
C2683       C  0.05228284  0.64412653  0.17276588    -0.02700
C2684       C  0.04138444  0.62544585  0.17664600     0.07000
C2685       C  0.05256037  0.60693803  0.17404818    -0.02800
C2686       C  0.07414813  0.60702271  0.17017191    -0.02800
C2687       C  0.08531109  0.62586387  0.16798967     0.07100
C2688       C  0.07371230  0.64419266  0.16834216    -0.03000
Br2689     Br  0.08677405  0.66995496  0.16132921    -0.01600
Br2690     Br  0.03776650  0.66991198  0.17210150    -0.01600
Br2691     Br  0.08816944  0.58092622  0.16883615    -0.01600
Br2692     Br  0.03869984  0.58070793  0.17583113    -0.01600
C2693       C  0.02292686  0.65230832  0.28236499    -0.02700
C2694       C  0.02541978  0.66130393  0.26271443     0.07000
C2695       C  0.04234796  0.67375331  0.25853426    -0.02800
C2696       C  0.05795554  0.67540471  0.27317632    -0.02800
C2697       C  0.05659728  0.66405595  0.29179349     0.07100
C2698       C  0.03894282  0.65266206  0.29638307    -0.03000
Br2699     Br  0.03644026  0.63695911  0.32155992    -0.01600
Br2700     Br  0.99839045  0.63744704  0.28984706    -0.01600
Br2701     Br  0.08165198  0.69204145  0.26651646    -0.01600
Br2702     Br  0.04464219  0.68720320  0.23225683    -0.01600
C2703       C  0.24180619  0.58169435  0.06464463    -0.02700
C2704       C  0.23879715  0.57669813  0.04376059     0.07000
C2705       C  0.25122935  0.56146259  0.03455598    -0.02800
C2706       C  0.26591855  0.55096495  0.04619608    -0.02800
C2707       C  0.26662314  0.55389544  0.06757602     0.07100
C2708       C  0.25587035  0.57049868  0.07642042    -0.03000
Br2709     Br  0.26107888  0.57811873  0.10465112    -0.01600
Br2710     Br  0.22576553  0.60303006  0.07751515    -0.01600
Br2711     Br  0.28574024  0.53362311  0.03251295    -0.01600
Br2712     Br  0.24840683  0.55435950  0.00609233    -0.01600
C2713       C  0.14928992  0.60883224  0.08748096    -0.02700
C2714       C  0.15167891  0.62695959  0.09950300     0.07000
C2715       C  0.15622753  0.64539462  0.08877964    -0.02800
C2716       C  0.15986325  0.64525821  0.06714007    -0.02800
C2717       C  0.16116496  0.62649124  0.05593423     0.07100
C2718       C  0.15468464  0.60840353  0.06630769    -0.03000
Br2719     Br  0.15166392  0.58279039  0.05144577    -0.01600
Br2720     Br  0.13688986  0.58455225  0.09940166    -0.01600
Br2721     Br  0.16184069  0.67121064  0.05305429    -0.01600
Br2722     Br  0.15835726  0.67110126  0.10349119    -0.01600
C2723       C  0.23572710  0.66449961  0.07061883    -0.02700
C2724       C  0.24191232  0.65281242  0.05341348     0.07000
C2725       C  0.26021978  0.64084441  0.05466164    -0.02800
C2726       C  0.27087600  0.63971265  0.07311040    -0.02800
C2727       C  0.26654881  0.65374607  0.08883797     0.07100
C2728       C  0.24845623  0.66572745  0.08798427    -0.03000
Br2729     Br  0.24143337  0.68525615  0.10938695    -0.01600
Br2730     Br  0.21142252  0.68116769  0.06973230    -0.01600
Br2731     Br  0.29184153  0.61891950  0.07668586    -0.01600
Br2732     Br  0.27340918  0.62720583  0.03155512    -0.01600
C2733       C  0.90249462  0.35498624  0.17441994    -0.02700
C2734       C  0.89098151  0.37203148  0.16700854     0.07000
C2735       C  0.90259670  0.39008796  0.16202200    -0.02800
C2736       C  0.92404370  0.39160575  0.16628817    -0.02800
C2737       C  0.93510939  0.37512793  0.17523730     0.07100
C2738       C  0.92419064  0.35627270  0.17746225    -0.03000
Br2739     Br  0.93883350  0.33123728  0.18318575    -0.01600
Br2740     Br  0.88910285  0.32921833  0.18080875    -0.01600
Br2741     Br  0.93852122  0.41624597  0.15802255    -0.01600
Br2742     Br  0.88991806  0.41367982  0.14919394    -0.01600
C2743       C  0.90052619  0.17532848  0.35180634    -0.02700
C2744       C  0.89069746  0.16520014  0.36833522     0.07000
C2745       C  0.90311567  0.15631810  0.38366535    -0.02800
C2746       C  0.92455287  0.15964966  0.38390078    -0.02800
C2747       C  0.93413918  0.17217402  0.36890410     0.07100
C2748       C  0.92206383  0.17877223  0.35203582    -0.03000
Br2749     Br  0.93440630  0.19317416  0.32929345    -0.01600
Br2750     Br  0.88447224  0.18549327  0.32919043    -0.01600
Br2751     Br  0.94086860  0.14633953  0.40468850    -0.01600
Br2752     Br  0.89083925  0.13873799  0.40412708    -0.01600
C2753       C  0.91865539  0.28176277  0.36595342    -0.02700
C2754       C  0.91956325  0.29462997  0.34869294     0.07000
C2755       C  0.93416748  0.29050107  0.33311252    -0.02800
C2756       C  0.94639038  0.27277168  0.33417593    -0.02800
C2757       C  0.94339832  0.25867713  0.35019593     0.07100
C2758       C  0.92843990  0.26265869  0.36524302    -0.03000
Br2759     Br  0.91890619  0.24093004  0.38280024    -0.01600
Br2760     Br  0.90523441  0.29030459  0.39101975    -0.01600
Br2761     Br  0.96688425  0.26726344  0.31350620    -0.01600
Br2762     Br  0.93938464  0.31049265  0.31190310    -0.01600
C2763       C  0.90811322  0.33779266  0.27069808    -0.02700
C2764       C  0.90580454  0.35125466  0.28771993     0.07000
C2765       C  0.91877718  0.36817259  0.29011428    -0.02800
C2766       C  0.93567447  0.37038364  0.27719903    -0.02800
C2767       C  0.93861885  0.35659634  0.26028261     0.07100
C2768       C  0.92447561  0.34059237  0.25694004    -0.03000
Br2769     Br  0.92908455  0.32043801  0.23564787    -0.01600
Br2770     Br  0.89041921  0.31412072  0.26691596    -0.01600
Br2771     Br  0.95491199  0.39169269  0.28515891    -0.01600
Br2772     Br  0.91357252  0.38832956  0.31159186    -0.01600
C2773       C  0.81811030  0.32495997  0.26538597    -0.02700
C2774       C  0.82841327  0.33885687  0.27865179     0.07000
C2775       C  0.84008424  0.35485726  0.26983242    -0.02800
C2776       C  0.84274807  0.35578495  0.24839952    -0.02800
C2777       C  0.83093402  0.34336107  0.23512084     0.07100
C2778       C  0.81860214  0.32774720  0.24378263    -0.03000
Br2779     Br  0.80175210  0.31073324  0.22634657    -0.01600
Br2780     Br  0.80221109  0.30281695  0.27693016    -0.01600
Br2781     Br  0.86300199  0.37406807  0.23682458    -0.01600
Br2782     Br  0.85190983  0.37627798  0.28664377    -0.01600
C2783       C  0.80840296  0.24131445  0.33754999    -0.02700
C2784       C  0.82319587  0.22673163  0.34401694     0.07000
C2785       C  0.84172974  0.23407927  0.35215928    -0.02800
C2786       C  0.84662206  0.25503250  0.35117098    -0.02800
C2787       C  0.83218640  0.26985781  0.34428886     0.07100
C2788       C  0.81273924  0.26269873  0.33798235    -0.03000
Br2789     Br  0.79220868  0.28179580  0.32884352    -0.01600
Br2790     Br  0.78193281  0.23234360  0.32807930    -0.01600
Br2791     Br  0.87396239  0.26227706  0.35909111    -0.01600
Br2792     Br  0.85954842  0.21619351  0.36766724    -0.01600
C2793       C  0.74817275  0.16457479  0.32958033    -0.02700
C2794       C  0.75936470  0.15296207  0.34391371     0.07000
C2795       C  0.74886216  0.13880442  0.35651593    -0.02800
C2796       C  0.72738373  0.13783187  0.35634303    -0.02800
C2797       C  0.71613602  0.14921617  0.34187237     0.07100
C2798       C  0.72670140  0.16209066  0.32800760    -0.03000
Br2799     Br  0.71195411  0.17540119  0.30621013    -0.01600
Br2800     Br  0.76205268  0.18430996  0.31262486    -0.01600
Br2801     Br  0.71317715  0.12104353  0.37630703    -0.01600
Br2802     Br  0.76415240  0.12090204  0.37443763    -0.01600
C2803       C  0.65888806  0.14323057  0.25706127    -0.02700
C2804       C  0.65044692  0.15513670  0.27361050     0.07000
C2805       C  0.63860893  0.17245288  0.26844052    -0.02800
C2806       C  0.63403346  0.17691351  0.24765259    -0.02800
C2807       C  0.64116626  0.16412029  0.23133359     0.07100
C2808       C  0.65405470  0.14761525  0.23628084    -0.03000
Br2809     Br  0.66398074  0.12995794  0.21459464    -0.01600
Br2810     Br  0.67669120  0.12003823  0.26185268    -0.01600
Br2811     Br  0.61808543  0.20122919  0.24178937    -0.01600
Br2812     Br  0.62971653  0.19115434  0.28968560    -0.01600
C2813       C  0.73249646  0.31936103  0.16330989    -0.02700
C2814       C  0.71760267  0.33311934  0.17145949     0.07000
C2815       C  0.72417745  0.34947956  0.18375066    -0.02800
C2816       C  0.74532261  0.35293271  0.18688946    -0.02800
C2817       C  0.76038863  0.34094846  0.17616291     0.07100
C2818       C  0.75366877  0.32363230  0.16502762    -0.03000
Br2819     Br  0.77334602  0.30525365  0.15259639    -0.01600
Br2820     Br  0.72393876  0.29468914  0.14902511    -0.01600
Br2821     Br  0.75247128  0.37480745  0.20574732    -0.01600
Br2822     Br  0.70414889  0.36838230  0.19461209    -0.01600
C2823       C  0.66549006  0.25635142  0.17179872    -0.02700
C2824       C  0.64997262  0.27078400  0.16700723     0.07000
C2825       C  0.63055674  0.26311337  0.16131123    -0.02800
C2826       C  0.62786481  0.24204506  0.15696221    -0.02800
C2827       C  0.64304203  0.22760134  0.16226156     0.07100
C2828       C  0.66192936  0.23496643  0.16964228    -0.03000
Br2829     Br  0.68321544  0.21550370  0.17573362    -0.01600
Br2830     Br  0.69071315  0.26564635  0.18400184    -0.01600
Br2831     Br  0.60584690  0.23417002  0.13889237    -0.01600
Br2832     Br  0.60703136  0.28079190  0.16058354    -0.01600
C2833       C  0.42761756  0.06479510  0.22826742    -0.02700
C2834       C  0.41330608  0.05393888  0.24014209     0.07000
C2835       C  0.41298329  0.05641888  0.26185919    -0.02800
C2836       C  0.42746954  0.06907625  0.27151161    -0.02800
C2837       C  0.44255719  0.07903667  0.25973462     0.07100
C2838       C  0.44242414  0.07707850  0.23796459    -0.03000
Br2839     Br  0.46303390  0.08990408  0.22082884    -0.01600
Br2840     Br  0.42646204  0.06344963  0.19859930    -0.01600
Br2841     Br  0.42611834  0.07308225  0.30096217    -0.01600
Br2842     Br  0.39363623  0.04187015  0.27926597    -0.01600
C2843       C  0.41658632  0.13339111  0.31406900    -0.02700
C2844       C  0.43148038  0.12903626  0.32910846     0.07000
C2845       C  0.42475986  0.12640639  0.34958412    -0.02800
C2846       C  0.40355931  0.12833586  0.35475762    -0.02800
C2847       C  0.38889467  0.13376697  0.33963015     0.07100
C2848       C  0.39603184  0.13741997  0.31949059    -0.03000
Br2849     Br  0.37780703  0.14799172  0.29886621    -0.01600
Br2850     Br  0.42323545  0.13004639  0.28551557    -0.01600
Br2851     Br  0.39485791  0.12490587  0.38283193    -0.01600
Br2852     Br  0.44454595  0.11926883  0.37020440    -0.01600
C2853       C  0.55210216  0.14572104  0.32869655    -0.02700
C2854       C  0.53889413  0.12948695  0.33560910     0.07000
C2855       C  0.54804852  0.11388029  0.34769039    -0.02800
C2856       C  0.56969789  0.11321912  0.35054755    -0.02800
C2857       C  0.58285499  0.12784950  0.34115383     0.07100
C2858       C  0.57368694  0.14448818  0.33095186    -0.03000
Br2859     Br  0.59080837  0.16530575  0.31865542    -0.01600
Br2860     Br  0.54173348  0.17047337  0.31599068    -0.01600
Br2861     Br  0.58130226  0.09277482  0.36846684    -0.01600
Br2862     Br  0.53110634  0.09387907  0.36155418    -0.01600
C2863       C  0.56412903  0.13916657  0.22975695    -0.02700
C2864       C  0.55767844  0.15487115  0.21656306     0.07000
C2865       C  0.54350207  0.16976416  0.22375514    -0.02800
C2866       C  0.53544908  0.16850929  0.24369543    -0.02800
C2867       C  0.54040963  0.15160878  0.25610013     0.07100
C2868       C  0.55614925  0.13815559  0.24975537    -0.03000
Br2869     Br  0.56629337  0.11804905  0.26870834    -0.01600
Br2870     Br  0.58371026  0.11897040  0.22056023    -0.01600
Br2871     Br  0.51743584  0.18992549  0.25356566    -0.01600
Br2872     Br  0.53408774  0.19159770  0.20600318    -0.01600
C2873       C  0.43946492  0.14769282  0.20874545    -0.02700
C2874       C  0.42011280  0.15460471  0.21524483     0.07000
C2875       C  0.41770697  0.16251134  0.23534437    -0.02800
C2876       C  0.43459517  0.16460012  0.24841162    -0.02800
C2877       C  0.45358396  0.15603913  0.24275565     0.07100
C2878       C  0.45626050  0.14866945  0.22224623    -0.03000
Br2879     Br  0.48301344  0.14192073  0.21106668    -0.01600
Br2880     Br  0.44338280  0.13816848  0.18082396    -0.01600
Br2881     Br  0.43192136  0.18152060  0.27279612    -0.01600
Br2882     Br  0.39101324  0.17002604  0.24558249    -0.01600
C2883       C  0.42360137  0.24188711  0.05985042    -0.02700
C2884       C  0.40913072  0.25397457  0.04962748     0.07000
C2885       C  0.40899780  0.27555043  0.05295293    -0.02800
C2886       C  0.42402632  0.28475636  0.06557067    -0.02800
C2887       C  0.43981034  0.27277775  0.07387245     0.07100
C2888       C  0.43935712  0.25120265  0.07102889    -0.03000
Br2889     Br  0.46024791  0.23372037  0.08233640    -0.01600
Br2890     Br  0.42076700  0.21235427  0.06033807    -0.01600
Br2891     Br  0.42202677  0.31328877  0.07293512    -0.01600
Br2892     Br  0.38863535  0.29289542  0.04040397    -0.01600
C2893       C  0.42451286  0.34618640  0.11816769    -0.02700
C2894       C  0.43511931  0.33642895  0.13440327     0.07000
C2895       C  0.42334152  0.33004757  0.15168035    -0.02800
C2896       C  0.40155990  0.33033972  0.15111853    -0.02800
C2897       C  0.39104535  0.33790704  0.13378976     0.07100
C2898       C  0.40279683  0.34653730  0.11764402    -0.03000
Br2899     Br  0.38921549  0.35927648  0.09462400    -0.01600
Br2900     Br  0.43973514  0.36059573  0.09715403    -0.01600
Br2901     Br  0.38618497  0.31857265  0.17350471    -0.01600
Br2902     Br  0.43644898  0.32126930  0.17664652    -0.01600
C2903       C  0.55120647  0.34459905  0.14556350    -0.02700
C2904       C  0.54267070  0.32730505  0.13544551     0.07000
C2905       C  0.55640480  0.31230244  0.12788967    -0.02800
C2906       C  0.57769515  0.31563676  0.12744469    -0.02800
C2907       C  0.58638355  0.33275596  0.13767235     0.07100
C2908       C  0.57290353  0.34736348  0.14659540    -0.03000
Br2909     Br  0.58406140  0.37214138  0.15846539    -0.01600
Br2910     Br  0.53334207  0.36347380  0.15958868    -0.01600
Br2911     Br  0.59448378  0.29620109  0.11219858    -0.01600
Br2912     Br  0.54701028  0.28529667  0.12121776    -0.01600
C2913       C  0.52119581  0.22509393  0.14913646    -0.02700
C2914       C  0.52387232  0.24517430  0.15655161     0.07000
C2915       C  0.54126318  0.25023154  0.16810456    -0.02800
C2916       C  0.55662922  0.23537135  0.17095091    -0.02800
C2917       C  0.55564949  0.21637358  0.15995502     0.07100
C2918       C  0.53765338  0.21152466  0.14884449    -0.03000
Br2919     Br  0.53530989  0.18753181  0.13135112    -0.01600
Br2920     Br  0.49459610  0.21611964  0.13958239    -0.01600
Br2921     Br  0.57781193  0.24127806  0.19087149    -0.01600
Br2922     Br  0.54413926  0.27747629  0.17954519    -0.01600
C2923       C  0.44400799  0.23980999  0.17301024    -0.02700
C2924       C  0.43856811  0.25548160  0.15935401     0.07000
C2925       C  0.42062126  0.25387556  0.14758960    -0.02800
C2926       C  0.40921164  0.23560432  0.14801007    -0.02800
C2927       C  0.41537395  0.21936531  0.16077047     0.07100
C2928       C  0.43257422  0.22164514  0.17361638    -0.03000
Br2929     Br  0.44090677  0.20016097  0.19196589    -0.01600
Br2930     Br  0.46837105  0.24289892  0.18959502    -0.01600
Br2931     Br  0.38600719  0.23194952  0.13005979    -0.01600
Br2932     Br  0.41252249  0.27620765  0.13008076    -0.01600
C2933       C  0.54401844  0.23716698  0.05932895    -0.02700
C2934       C  0.56030163  0.24865223  0.05108476     0.07000
C2935       C  0.56239859  0.26958359  0.05671733    -0.02800
C2936       C  0.54626037  0.27985571  0.06674533    -0.02800
C2937       C  0.52940133  0.26847911  0.07453068     0.07100
C2938       C  0.52977743  0.24668707  0.07239051    -0.03000
Br2939     Br  0.51253869  0.22870369  0.08841136    -0.01600
Br2940     Br  0.53994144  0.20862598  0.05210058    -0.01600
Br2941     Br  0.54776459  0.30948147  0.06868115    -0.01600
Br2942     Br  0.58787725  0.28414383  0.05179349    -0.01600
C2943       C  0.63193782  0.17243179  0.06563146    -0.02700
C2944       C  0.61353303  0.17450539  0.05409272     0.07000
C2945       C  0.59530787  0.16725836  0.06370537    -0.02800
C2946       C  0.59499536  0.16190539  0.08494321    -0.02800
C2947       C  0.61274057  0.16397980  0.09750949     0.07100
C2948       C  0.63152347  0.16796613  0.08710919    -0.03000
Br2949     Br  0.65711335  0.16774340  0.10190009    -0.01600
Br2950     Br  0.65821483  0.17399653  0.05186417    -0.01600
Br2951     Br  0.57024655  0.14987103  0.09615592    -0.01600
Br2952     Br  0.57068164  0.16297821  0.04785034    -0.01600
C2953       C  0.65685148  0.27722938  0.04439403    -0.02700
C2954       C  0.65043791  0.25707407  0.04875536     0.07000
C2955       C  0.64839313  0.25077313  0.06911631    -0.02800
C2956       C  0.65020500  0.26507469  0.08510201    -0.02800
C2957       C  0.65344482  0.28619465  0.08073859     0.07100
C2958       C  0.65848552  0.29181721  0.06031057    -0.03000
Br2959     Br  0.66883877  0.31883233  0.05371909    -0.01600
Br2960     Br  0.66224843  0.28505386  0.01635550    -0.01600
Br2961     Br  0.64786335  0.25475647  0.11255955    -0.01600
Br2962     Br  0.64125965  0.22266328  0.07485142    -0.01600
C2963       C  0.54042895  0.04808752  0.23794883    -0.02700
C2964       C  0.55982174  0.04487170  0.24672773     0.07000
C2965       C  0.56348243  0.05213782  0.26712101    -0.02800
C2966       C  0.54833000  0.06365003  0.27751128    -0.02800
C2967       C  0.52852415  0.06528669  0.26899269     0.07100
C2968       C  0.52439557  0.05545735  0.25006379    -0.03000
Br2969     Br  0.49666111  0.04983173  0.24124331    -0.01600
Br2970     Br  0.53573507  0.04485656  0.20881472    -0.01600
Br2971     Br  0.55523506  0.07712498  0.30314059    -0.01600
Br2972     Br  0.58847405  0.04610466  0.28191567    -0.01600
C2973       C  0.63004124  0.06363649  0.17119157    -0.02700
C2974       C  0.61108992  0.05277827  0.17107812     0.07000
C2975       C  0.59342502  0.06399190  0.16528563    -0.02800
C2976       C  0.59401726  0.08567535  0.16273000    -0.02800
C2977       C  0.61272956  0.09699189  0.16463275     0.07100
C2978       C  0.63082991  0.08534769  0.16807844    -0.03000
Br2979     Br  0.65726089  0.09870409  0.16818561    -0.01600
Br2980     Br  0.65539426  0.04917328  0.17582812    -0.01600
Br2981     Br  0.56813754  0.09927989  0.15772440    -0.01600
Br2982     Br  0.56816062  0.04947105  0.15931733    -0.01600
C2983       C  0.65971335  0.04536644  0.26374324    -0.02700
C2984       C  0.64740189  0.04948212  0.24672266     0.07000
C2985       C  0.63544614  0.06734379  0.24638801    -0.02800
C2986       C  0.63387280  0.07951234  0.26414086    -0.02800
C2987       C  0.64297684  0.07288336  0.28263773     0.07100
C2988       C  0.65594724  0.05552533  0.28231137    -0.03000
Br2989     Br  0.66784974  0.04434054  0.30681664    -0.01600
Br2990     Br  0.68008840  0.02401137  0.26157979    -0.01600
Br2991     Br  0.61843662  0.10465678  0.26326478    -0.01600
Br2992     Br  0.61989888  0.07404894  0.22229786    -0.01600
C2993       C  0.90547614  0.63838590  0.16112202    -0.02700
C2994       C  0.89049663  0.63080372  0.17497701     0.07000
C2995       C  0.89735011  0.62162611  0.19324747    -0.02800
C2996       C  0.91840100  0.61788758  0.19663354    -0.02800
C2997       C  0.93370779  0.62485881  0.18265972     0.07100
C2998       C  0.92688372  0.63571477  0.16507853    -0.03000
Br2999     Br  0.94676025  0.64576748  0.14562845    -0.01600
Br3000     Br  0.89668079  0.65203497  0.13654485    -0.01600
Br3001     Br  0.92546319  0.60445718  0.22178671    -0.01600
Br3002     Br  0.87763735  0.61621775  0.21498652    -0.01600
C3003       C  0.75200466  0.67042187  0.15618084    -0.02700
C3004       C  0.75777056  0.65664950  0.17165624     0.07000
C3005       C  0.74222581  0.64844353  0.18459201    -0.02800
C3006       C  0.72123752  0.65179282  0.18050135    -0.02800
C3007       C  0.71520272  0.66502995  0.16454597     0.07100
C3008       C  0.73104855  0.67532013  0.15316311    -0.03000
Br3009     Br  0.72505982  0.69595134  0.13271411    -0.01600
Br3010     Br  0.77274109  0.68151921  0.13812916    -0.01600
Br3011     Br  0.70096399  0.63859744  0.19756227    -0.01600
Br3012     Br  0.74960723  0.63313550  0.20884486    -0.01600
C3013       C  0.84399531  0.66744112  0.42062346    -0.02700
C3014       C  0.86146753  0.66282553  0.40839650     0.07000
C3015       C  0.88021693  0.65894964  0.41900191    -0.02800
C3016       C  0.88138321  0.66005320  0.44071239    -0.02800
C3017       C  0.86457686  0.66684416  0.45268641     0.07100
C3018       C  0.84549756  0.66940353  0.44241502    -0.03000
Br3019     Br  0.82083966  0.67543708  0.45772334    -0.01600
Br3020     Br  0.81756094  0.67108103  0.40788788    -0.01600
Br3021     Br  0.90605628  0.65055433  0.45411995    -0.01600
Br3022     Br  0.90561711  0.65345798  0.40454222    -0.01600
C3023       C  0.91202845  0.65581911  0.27011378    -0.02700
C3024       C  0.91877044  0.66224365  0.28972903     0.07000
C3025       C  0.93823875  0.67163266  0.29163857    -0.02800
C3026       C  0.95102348  0.67326661  0.27433376    -0.02800
C3027       C  0.94487386  0.66483657  0.25539216     0.07100
C3028       C  0.92449816  0.65893913  0.25286418    -0.03000
Br3029     Br  0.91316022  0.65871309  0.22585986    -0.01600
Br3030     Br  0.88681698  0.64065187  0.26694686    -0.01600
Br3031     Br  0.97681202  0.68776045  0.27585574    -0.01600
Br3032     Br  0.94793013  0.68208477  0.31755327    -0.01600
C3033       C  0.84615788  0.67428812  0.26115495    -0.02700
C3034       C  0.83478623  0.66504690  0.27749468     0.07000
C3035       C  0.81845544  0.65186528  0.27240318    -0.02800
C3036       C  0.81431628  0.64676920  0.25170777    -0.02800
C3037       C  0.82590327  0.65560118  0.23523962     0.07100
C3038       C  0.84212057  0.66918382  0.24039301    -0.03000
Br3039     Br  0.85962406  0.68096193  0.21936094    -0.01600
Br3040     Br  0.86764356  0.69432905  0.26624345    -0.01600
Br3041     Br  0.79317373  0.62638461  0.24718800    -0.01600
Br3042     Br  0.80009631  0.64226627  0.29371425    -0.01600
C3043       C  0.75527974  0.82862623  0.43941703    -0.02700
C3044       C  0.77469205  0.83855867  0.44073769     0.07000
C3045       C  0.78020294  0.84854607  0.45916330    -0.02800
C3046       C  0.76582708  0.85019227  0.47513838    -0.02800
C3047       C  0.74580251  0.84230262  0.47277235     0.07100
C3048       C  0.74136890  0.82965408  0.45593897    -0.03000
Br3049     Br  0.71672193  0.81323880  0.45600266    -0.01600
Br3050     Br  0.74656365  0.81495670  0.41451409    -0.01600
Br3051     Br  0.77344294  0.86322978  0.50068678    -0.01600
Br3052     Br  0.80748101  0.85940531  0.46320488    -0.01600
C3053       C  0.82071922  0.77763238  0.44852729    -0.02700
C3054       C  0.82934267  0.77676656  0.42858469     0.07000
C3055       C  0.83834049  0.75815045  0.42173809    -0.02800
C3056       C  0.84210591  0.74236730  0.43593362    -0.02800
C3057       C  0.83369028  0.74368483  0.45580202     0.07100
C3058       C  0.82127152  0.76037263  0.46114253    -0.03000
Br3059     Br  0.80621339  0.75987124  0.48677475    -0.01600
Br3060     Br  0.80843793  0.80209828  0.45963982    -0.01600
Br3061     Br  0.86067130  0.72045776  0.42887900    -0.01600
Br3062     Br  0.84603501  0.75391051  0.39345324    -0.01600
C3063       C  0.83209169  0.76667736  0.32982282    -0.02700
C3064       C  0.81875595  0.77201353  0.34601759     0.07000
C3065       C  0.80847260  0.75578867  0.35673050    -0.02800
C3066       C  0.81424878  0.73506924  0.35359543    -0.02800
C3067       C  0.82980956  0.73019048  0.33949261     0.07100
C3068       C  0.83725020  0.74590279  0.32633098    -0.03000
Br3069     Br  0.85381718  0.73896275  0.30268187    -0.01600
Br3070     Br  0.84245277  0.78765712  0.31159953    -0.01600
Br3071     Br  0.80166777  0.71349030  0.36954113    -0.01600
Br3072     Br  0.78718551  0.76101015  0.37684410    -0.01600
C3073       C  0.63216817  0.91612973  0.16626880    -0.02700
C3074       C  0.61374593  0.90489448  0.16367178     0.07000
C3075       C  0.59536353  0.91635000  0.16130432    -0.02800
C3076       C  0.59466456  0.93762193  0.16606228    -0.02800
C3077       C  0.61274650  0.94835823  0.17171101     0.07100
C3078       C  0.63167369  0.93772718  0.16942846    -0.03000
Br3079     Br  0.65726909  0.95279306  0.16900791    -0.01600
Br3080     Br  0.65834573  0.90238912  0.16573651    -0.01600
Br3081     Br  0.56852171  0.95141024  0.16477565    -0.01600
Br3082     Br  0.57100286  0.90330954  0.15026670    -0.01600
C3083       C  0.65653506  0.76763347  0.15560323    -0.02700
C3084       C  0.64294432  0.77258440  0.17165699     0.07000
C3085       C  0.63666091  0.75668781  0.18522518    -0.02800
C3086       C  0.64071193  0.73583495  0.18060605    -0.02800
C3087       C  0.65172054  0.73064642  0.16268234     0.07100
C3088       C  0.66158179  0.74690225  0.15170627    -0.03000
Br3089     Br  0.68359113  0.74137592  0.13243232    -0.01600
Br3090     Br  0.66777694  0.78893117  0.13829796    -0.01600
Br3091     Br  0.63158778  0.71480467  0.19929258    -0.01600
Br3092     Br  0.62332917  0.76347521  0.21091676    -0.01600
C3093       C  0.63610325  0.88021371  0.42127562    -0.02700
C3094       C  0.64907562  0.87020681  0.40666865     0.07000
C3095       C  0.66671285  0.86033809  0.41448324    -0.02800
C3096       C  0.67309849  0.86387265  0.43485823    -0.02800
C3097       C  0.65992103  0.87259650  0.44980363     0.07100
C3098       C  0.64079631  0.88001773  0.44275399    -0.03000
Br3099     Br  0.62053296  0.88890129  0.46242349    -0.01600
Br3100     Br  0.61131783  0.89352528  0.41241745    -0.01600
Br3101     Br  0.70163660  0.86047264  0.44043475    -0.01600
Br3102     Br  0.68262420  0.84114762  0.39826517    -0.01600
C3103       C  0.65434274  0.92654984  0.26699785    -0.02700
C3104       C  0.64869768  0.93065266  0.28786723     0.07000
C3105       C  0.64448466  0.95130109  0.29362709    -0.02800
C3106       C  0.64475248  0.96673948  0.27871534    -0.02800
C3107       C  0.64654155  0.96168674  0.25773611     0.07100
C3108       C  0.65145274  0.94163033  0.25191510    -0.03000
Br3109     Br  0.65169424  0.93429517  0.22319154    -0.01600
Br3110     Br  0.66732853  0.90137766  0.25805204    -0.01600
Br3111     Br  0.64052205  0.99491876  0.28702657    -0.01600
Br3112     Br  0.63758396  0.95966346  0.32148368    -0.01600
C3113       C  0.72535855  0.86037131  0.36262237    -0.02700
C3114       C  0.71417071  0.84721264  0.34928604     0.07000
C3115       C  0.72475144  0.83136848  0.33895838    -0.02800
C3116       C  0.74630521  0.82971328  0.34062689    -0.02800
C3117       C  0.75728494  0.84299697  0.35377300     0.07100
C3118       C  0.74662991  0.85813572  0.36494213    -0.03000
Br3119     Br  0.76145318  0.87585331  0.38372121    -0.01600
Br3120     Br  0.71164809  0.88165553  0.37816115    -0.01600
Br3121     Br  0.76085848  0.80909450  0.32510231    -0.01600
Br3122     Br  0.70979444  0.81146913  0.32319927    -0.01600
C3123       C  0.63581612  0.85787827  0.26470488    -0.02700
C3124       C  0.65017768  0.84577852  0.27541816     0.07000
C3125       C  0.66333785  0.83286501  0.26391873    -0.02800
C3126       C  0.66150245  0.83136657  0.24233436    -0.02800
C3127       C  0.64764791  0.84397628  0.23165053     0.07100
C3128       C  0.63566382  0.85803232  0.24297783    -0.03000
Br3129     Br  0.61992182  0.87838942  0.22874773    -0.01600
Br3130     Br  0.61611788  0.87426687  0.27959787    -0.01600
Br3131     Br  0.67834118  0.81227486  0.22711215    -0.01600
Br3132     Br  0.68328380  0.81631149  0.27768540    -0.01600
C3133       C  0.93737362  0.55716489  0.28757836    -0.02700
C3134       C  0.93022195  0.53959380  0.27743651     0.07000
C3135       C  0.93633687  0.53567658  0.25694511    -0.02800
C3136       C  0.94702614  0.55061245  0.24571850    -0.02800
C3137       C  0.95326603  0.56903005  0.25546412     0.07100
C3138       C  0.94970417  0.57138734  0.27695977    -0.03000
Br3139     Br  0.96253318  0.59299450  0.29281533    -0.01600
Br3140     Br  0.92923023  0.56225076  0.31564366    -0.01600
Br3141     Br  0.95169862  0.54558892  0.21671552    -0.01600
Br3142     Br  0.92980845  0.50988354  0.24365368    -0.01600
C3143       C  0.95238045  0.45149257  0.25414638    -0.02700
C3144       C  0.94262823  0.43410564  0.24562568     0.07000
C3145       C  0.92363833  0.42760140  0.25384610    -0.02800
C3146       C  0.91499120  0.43774776  0.27094674    -0.02800
C3147       C  0.92527581  0.45454536  0.27996873     0.07100
C3148       C  0.94449931  0.46060019  0.27206585    -0.03000
Br3149     Br  0.95928786  0.48272634  0.28529779    -0.01600
Br3150     Br  0.97563497  0.46409143  0.24073880    -0.01600
Br3151     Br  0.88863619  0.42928117  0.28143104    -0.01600
Br3152     Br  0.90885071  0.40572990  0.24038115    -0.01600
C3153       C  0.87363732  0.43753941  0.34792295    -0.02700
C3154       C  0.85713512  0.44866070  0.33919590     0.07000
C3155       C  0.83807770  0.43812319  0.33721040    -0.02800
C3156       C  0.83671270  0.41642732  0.33967520    -0.02800
C3157       C  0.85379148  0.40506536  0.34656509     0.07100
C3158       C  0.87151304  0.41635388  0.35253555    -0.03000
Br3159     Br  0.89290133  0.40307240  0.36818052    -0.01600
Br3160     Br  0.89987641  0.45039615  0.35307320    -0.01600
Br3161     Br  0.81163894  0.40249430  0.33247772    -0.01600
Br3162     Br  0.81324431  0.45351116  0.33267363    -0.01600
C3163       C  0.84550320  0.56607491  0.33051618    -0.02700
C3164       C  0.86242888  0.55409018  0.33720658     0.07000
C3165       C  0.87756631  0.56429760  0.34918227    -0.02800
C3166       C  0.87732231  0.58599419  0.35174564    -0.02800
C3167       C  0.86178634  0.59811858  0.34277196     0.07100
C3168       C  0.84512287  0.58773303  0.33354462    -0.03000
Br3169     Br  0.82162015  0.60314370  0.32475799    -0.01600
Br3170     Br  0.82260920  0.55354632  0.31665010    -0.01600
Br3171     Br  0.89749684  0.59902350  0.36914501    -0.01600
Br3172     Br  0.89808093  0.54856694  0.36349922    -0.01600
C3173       C  0.85965848  0.55015195  0.23485534    -0.02700
C3174       C  0.84546521  0.54408054  0.25027721     0.07000
C3175       C  0.82501969  0.55087126  0.24911091    -0.02800
C3176       C  0.81944481  0.56498261  0.23381373    -0.02800
C3177       C  0.83403640  0.57141546  0.21910930     0.07100
C3178       C  0.85357844  0.56268444  0.21871481    -0.03000
Br3179     Br  0.87190035  0.56669056  0.19552743    -0.01600
Br3180     Br  0.88790006  0.54199579  0.23503685    -0.01600
Br3181     Br  0.79116032  0.57313206  0.23113859    -0.01600
Br3182     Br  0.80410724  0.53902176  0.26644108    -0.01600
C3183       C  0.85288952  0.46123568  0.22788434    -0.02700
C3184       C  0.84636575  0.45829440  0.24837833     0.07000
C3185       C  0.83425528  0.44134061  0.25360602    -0.02800
C3186       C  0.82906432  0.42687134  0.23851695    -0.02800
C3187       C  0.83624348  0.42936739  0.21804814     0.07100
C3188       C  0.84763553  0.44692905  0.21269705    -0.03000
Br3189     Br  0.85444806  0.45264059  0.18433605    -0.01600
Br3190     Br  0.86871752  0.48515114  0.22021053    -0.01600
Br3191     Br  0.81218127  0.40380128  0.24661452    -0.01600
Br3192     Br  0.82567320  0.43742411  0.28164957    -0.01600
C3193       C  0.52132142  0.96353640  0.26147843    -0.02700
C3194       C  0.52653039  0.94721554  0.27483247     0.07000
C3195       C  0.54655357  0.93894536  0.27373710    -0.02800
C3196       C  0.56097228  0.94708511  0.25964151    -0.02800
C3197       C  0.55536547  0.96309811  0.24626033     0.07100
C3198       C  0.53541829  0.97092735  0.24700508    -0.03000
Br3199     Br  0.52744126  0.99221546  0.22810383    -0.01600
Br3200     Br  0.49490257  0.97656706  0.26286480    -0.01600
Br3201     Br  0.58820877  0.93580480  0.25792877    -0.01600
Br3202     Br  0.55411081  0.91575329  0.29041169    -0.01600
C3203       C  0.42056609  0.93579643  0.26534741    -0.02700
C3204       C  0.43680498  0.94299157  0.27776046     0.07000
C3205       C  0.44153542  0.96405621  0.27767445    -0.02800
C3206       C  0.43379702  0.97665112  0.26202851    -0.02800
C3207       C  0.41920042  0.96885409  0.24784443     0.07100
C3208       C  0.41185196  0.94861206  0.25035565    -0.03000
Br3209     Br  0.38910500  0.93867895  0.23430409    -0.01600
Br3210     Br  0.40941593  0.90871776  0.27016300    -0.01600
Br3211     Br  0.44382171  0.00460497  0.25998231    -0.01600
Br3212     Br  0.45708140  0.97609192  0.29987992    -0.01600
C3213       C  0.42209115  0.85864578  0.33138070    -0.02700
C3214       C  0.43322763  0.87688330  0.33625038     0.07000
C3215       C  0.42267103  0.89213637  0.34765566    -0.02800
C3216       C  0.40110041  0.89130193  0.35030612    -0.02800
C3217       C  0.38959491  0.87342072  0.34461883     0.07100
C3218       C  0.40091211  0.85659394  0.33654735    -0.03000
Br3219     Br  0.38806460  0.83002148  0.33354385    -0.01600
Br3220     Br  0.43516673  0.83601557  0.31733753    -0.01600
Br3221     Br  0.38822755  0.91610073  0.36068384    -0.01600
Br3222     Br  0.43785179  0.91376426  0.36143065    -0.01600
C3223       C  0.54993313  0.89538545  0.34329293    -0.02700
C3224       C  0.53838739  0.87864248  0.33534312     0.07000
C3225       C  0.54873833  0.85952571  0.33341188    -0.02800
C3226       C  0.57047982  0.85827830  0.33469166    -0.02800
C3227       C  0.58225651  0.87550478  0.34094604     0.07100
C3228       C  0.57131258  0.89344810  0.34695325    -0.03000
Br3229     Br  0.58519384  0.91531574  0.36161868    -0.01600
Br3230     Br  0.53713531  0.92146766  0.34926036    -0.01600
Br3231     Br  0.58375241  0.83308997  0.32656706    -0.01600
Br3232     Br  0.53303581  0.83440559  0.33176420    -0.01600
C3233       C  0.54410944  0.85170443  0.25559136    -0.02700
C3234       C  0.53515737  0.87116616  0.25194617     0.07000
C3235       C  0.54327922  0.88384395  0.23613120    -0.02800
C3236       C  0.55969291  0.87684402  0.22425156    -0.02800
C3237       C  0.56657779  0.85659782  0.22625874     0.07100
C3238       C  0.55931727  0.84420315  0.24232862    -0.03000
Br3239     Br  0.56910134  0.81637018  0.24541321    -0.01600
Br3240     Br  0.53587952  0.83466968  0.27834381    -0.01600
Br3241     Br  0.57313590  0.89536334  0.20556287    -0.01600
Br3242     Br  0.53122515  0.90985864  0.22817725    -0.01600
C3243       C  0.43863269  0.84243345  0.24500286    -0.02700
C3244       C  0.44494397  0.86310600  0.24573154     0.07000
C3245       C  0.43677971  0.87746217  0.23162166    -0.02800
C3246       C  0.42060515  0.87165328  0.21889509    -0.02800
C3247       C  0.41455029  0.85105477  0.21798703     0.07100
C3248       C  0.42388614  0.83628069  0.23060890    -0.03000
Br3249     Br  0.41767741  0.80747323  0.22713848    -0.01600
Br3250     Br  0.45186752  0.82211746  0.26187490    -0.01600
Br3251     Br  0.40597494  0.89216761  0.20356470    -0.01600
Br3252     Br  0.44796696  0.90478464  0.22803385    -0.01600
C3253       C  0.16107673  0.75708588  0.64833842    -0.02700
C3254       C  0.15165020  0.77262224  0.66069371     0.07000
C3255       C  0.14106128  0.76642034  0.67851022    -0.02800
C3256       C  0.13875435  0.74530071  0.68327511    -0.02800
C3257       C  0.14715223  0.72968603  0.67015483     0.07100
C3258       C  0.15903582  0.73603392  0.65323152    -0.03000
Br3259     Br  0.17461221  0.71608978  0.63775332    -0.01600
Br3260     Br  0.17730843  0.76362076  0.62431590    -0.01600
Br3261     Br  0.12427299  0.73888650  0.70852183    -0.01600
Br3262     Br  0.13123931  0.78699259  0.69763558    -0.01600
C3263       C  0.40495864  0.87821740  0.65583828    -0.02700
C3264       C  0.39061614  0.87086871  0.67047886     0.07000
C3265       C  0.39808159  0.86461924  0.68966690    -0.02800
C3266       C  0.41919201  0.86624534  0.69439146    -0.02800
C3267       C  0.43398549  0.87248863  0.67960530     0.07100
C3268       C  0.42640954  0.87879130  0.66023861    -0.03000
Br3269     Br  0.44528693  0.88955431  0.64018439    -0.01600
Br3270     Br  0.39494609  0.88832590  0.63001222    -0.01600
Br3271     Br  0.42631895  0.86435825  0.72259883    -0.01600
Br3272     Br  0.37887307  0.85578345  0.71051630    -0.01600
C3273       C  0.23111910  0.82434535  0.65290103    -0.02700
C3274       C  0.21580217  0.83479736  0.66454994     0.07000
C3275       C  0.22198865  0.84684445  0.68134453    -0.02800
C3276       C  0.24308115  0.85043223  0.68472181    -0.02800
C3277       C  0.25802832  0.84333530  0.67041604     0.07100
C3278       C  0.25197042  0.82965153  0.65491143    -0.03000
Br3279     Br  0.27161022  0.82039334  0.63470789    -0.01600
Br3280     Br  0.22369733  0.80292961  0.63362200    -0.01600
Br3281     Br  0.25129975  0.86560866  0.70884480    -0.01600
Br3282     Br  0.20177432  0.85955532  0.69883776    -0.01600
C3283       C  0.15710130  0.61145580  0.91816216    -0.02700
C3284       C  0.15460342  0.63000925  0.90694491     0.07000
C3285       C  0.15561909  0.64869658  0.91823123    -0.02800
C3286       C  0.15981864  0.64887659  0.93972050    -0.02800
C3287       C  0.16375398  0.63042060  0.95066576     0.07100
C3288       C  0.16129094  0.61166019  0.93962199    -0.03000
Br3289     Br  0.16355537  0.58552197  0.95334135    -0.01600
Br3290     Br  0.15619222  0.58510939  0.90426543    -0.01600
Br3291     Br  0.15829544  0.67471821  0.95434465    -0.01600
Br3292     Br  0.15050127  0.67450428  0.90462075    -0.01600
C3293       C  0.15804218  0.67316374  0.74408405    -0.02700
C3294       C  0.14563195  0.65869236  0.73372232     0.07000
C3295       C  0.13476372  0.64402876  0.74538304    -0.02800
C3296       C  0.13454553  0.64513303  0.76697941    -0.02800
C3297       C  0.14784514  0.65871214  0.77731660     0.07100
C3298       C  0.15973666  0.67264116  0.76572120    -0.03000
Br3299     Br  0.17667515  0.69242283  0.77978305    -0.01600
Br3300     Br  0.17135306  0.69473951  0.72882693    -0.01600
Br3301     Br  0.11422730  0.62980404  0.78214483    -0.01600
Br3302     Br  0.11904639  0.62313895  0.73143188    -0.01600
C3303       C  0.40368483  0.66336318  0.85531269    -0.02700
C3304       C  0.39261036  0.65853618  0.87355189     0.07000
C3305       C  0.40448319  0.65477510  0.89146136    -0.02800
C3306       C  0.42571147  0.65986940  0.89226258    -0.02800
C3307       C  0.43608788  0.66781939  0.87475151     0.07100
C3308       C  0.42517467  0.66729332  0.85587479    -0.03000
Br3309     Br  0.43995541  0.66962944  0.83018041    -0.01600
Br3310     Br  0.39015310  0.66422256  0.82896193    -0.01600
Br3311     Br  0.44019251  0.65493919  0.91761401    -0.01600
Br3312     Br  0.39246918  0.64045380  0.91456854    -0.01600
C3313       C  0.28225155  0.66528575  0.95271173    -0.02700
C3314       C  0.27589377  0.66753003  0.93230651     0.07000
C3315       C  0.25548352  0.67374618  0.92827840    -0.02800
C3316       C  0.24064981  0.67251458  0.94390393    -0.02800
C3317       C  0.24667638  0.66764000  0.96388624     0.07100
C3318       C  0.26773384  0.66652750  0.96852942    -0.03000
Br3319     Br  0.27671446  0.66758816  0.99652507    -0.01600
Br3320     Br  0.31098435  0.66211200  0.95905837    -0.01600
Br3321     Br  0.21213566  0.67697362  0.93813128    -0.01600
Br3322     Br  0.24775157  0.68507857  0.90215553    -0.01600
C3323       C  0.24700576  0.64841542  0.86250480    -0.02700
C3324       C  0.26048533  0.65550025  0.84698720     0.07000
C3325       C  0.25219105  0.66115825  0.82786560    -0.02800
C3326       C  0.23075018  0.65978749  0.82467874    -0.02800
C3327       C  0.21731714  0.65537988  0.84126063     0.07100
C3328       C  0.22574887  0.65072455  0.86042037    -0.03000
Br3329     Br  0.20798536  0.64820561  0.88395187    -0.01600
Br3330     Br  0.25762315  0.63406517  0.88610050    -0.01600
Br3331     Br  0.21990866  0.66345089  0.79752657    -0.01600
Br3332     Br  0.26992219  0.67069634  0.80616774    -0.01600
C3333       C  0.41722453  0.76721070  0.83696728    -0.02700
C3334       C  0.42032772  0.78750741  0.84442500     0.07000
C3335       C  0.43925015  0.79315813  0.85291946    -0.02800
C3336       C  0.45438143  0.77827761  0.85548972    -0.02800
C3337       C  0.45033808  0.75758090  0.85014278     0.07100
C3338       C  0.43213287  0.75218302  0.84027275    -0.03000
Br3339     Br  0.42714772  0.72395833  0.83264230    -0.01600
Br3340     Br  0.39273365  0.75924190  0.82247802    -0.01600
Br3341     Br  0.48052213  0.78651045  0.86675931    -0.01600
Br3342     Br  0.44495526  0.82147435  0.86001656    -0.01600
C3343       C  0.42750233  0.86502142  0.79073354    -0.02700
C3344       C  0.41544474  0.84732379  0.78774030     0.07000
C3345       C  0.42214622  0.83211318  0.77368398    -0.02800
C3346       C  0.44034486  0.83497072  0.76232174    -0.02800
C3347       C  0.45225411  0.85285641  0.76515774     0.07100
C3348       C  0.44631632  0.86723666  0.78047791    -0.03000
Br3349     Br  0.46393413  0.88950126  0.78909594    -0.01600
Br3350     Br  0.41794661  0.88675468  0.80865215    -0.01600
Br3351     Br  0.44985747  0.81350453  0.74408830    -0.01600
Br3352     Br  0.40749642  0.80656095  0.77078094    -0.01600
C3353       C  0.33708511  0.82203808  0.75941040    -0.02700
C3354       C  0.32947335  0.83476818  0.77577240     0.07000
C3355       C  0.31612092  0.85093716  0.77051459    -0.02800
C3356       C  0.31199132  0.85551710  0.74970273    -0.02800
C3357       C  0.32107719  0.84386647  0.73346756     0.07100
C3358       C  0.33251319  0.82641291  0.73864958    -0.03000
Br3359     Br  0.34007077  0.80710512  0.71724413    -0.01600
Br3360     Br  0.35404486  0.79818373  0.76413141    -0.01600
Br3361     Br  0.29358693  0.87813829  0.74436966    -0.01600
Br3362     Br  0.30220637  0.86645963  0.79166299    -0.01600
C3363       C  0.34802636  0.75509121  0.85392719    -0.02700
C3364       C  0.33506267  0.76863520  0.84310985     0.07000
C3365       C  0.31816311  0.76030211  0.83247562    -0.02800
C3366       C  0.31457406  0.73880600  0.83248943    -0.02800
C3367       C  0.32880809  0.72514111  0.84165575     0.07100
C3368       C  0.34581916  0.73360479  0.85210654    -0.03000
Br3369     Br  0.36619539  0.71612548  0.86456169    -0.01600
Br3370     Br  0.36832609  0.76610124  0.87241021    -0.01600
Br3371     Br  0.29021265  0.72819907  0.81938015    -0.01600
Br3372     Br  0.30038590  0.77815002  0.81713059    -0.01600
C3373       C  0.24449904  0.96333042  0.47021836    -0.02700
C3374       C  0.25161539  0.94402430  0.46365379     0.07000
C3375       C  0.24327400  0.93510696  0.44571306    -0.02800
C3376       C  0.22720316  0.94501717  0.43511175    -0.02800
C3377       C  0.21962156  0.96406127  0.44220724     0.07100
C3378       C  0.22834630  0.97302067  0.45994837    -0.03000
Br3379     Br  0.21855928  0.99924322  0.46984937    -0.01600
Br3380     Br  0.25723353  0.97645809  0.49359506    -0.01600
Br3381     Br  0.21599821  0.93291130  0.41049324    -0.01600
Br3382     Br  0.25435129  0.90969320  0.43534809    -0.01600
C3383       C  0.31203177  0.85961894  0.44212864    -0.02700
C3384       C  0.31435962  0.87812420  0.45364545     0.07000
C3385       C  0.32342770  0.89500876  0.44323090    -0.02800
C3386       C  0.32766100  0.89397779  0.42175699    -0.02800
C3387       C  0.32154037  0.87674260  0.40969499     0.07100
C3388       C  0.31399751  0.85938487  0.42035531    -0.03000
Br3389     Br  0.30464128  0.83558719  0.40532641    -0.01600
Br3390     Br  0.30878477  0.83372020  0.45619830    -0.01600
Br3391     Br  0.34316892  0.91600118  0.40923666    -0.01600
Br3392     Br  0.33081534  0.91969346  0.45799502    -0.01600
C3393       C  0.32817458  0.86747796  0.56550822    -0.02700
C3394       C  0.30957582  0.87739820  0.56031303     0.07000
C3395       C  0.29638173  0.88300179  0.57679102    -0.02800
C3396       C  0.30129372  0.87856718  0.59745477    -0.02800
C3397       C  0.32049321  0.87046081  0.60276376     0.07100
C3398       C  0.33387077  0.86460372  0.58655886    -0.03000
Br3399     Br  0.35961926  0.85201701  0.59322816    -0.01600
Br3400     Br  0.34609662  0.85847293  0.54377043    -0.01600
Br3401     Br  0.28108339  0.88282156  0.61879974    -0.01600
Br3402     Br  0.27094826  0.89663112  0.57175815    -0.01600
C3403       C  0.23207988  0.85305492  0.56687910    -0.02700
C3404       C  0.22562688  0.85467493  0.54645269     0.07000
C3405       C  0.20450174  0.85417229  0.54192594    -0.02800
C3406       C  0.19006145  0.85644265  0.55763176    -0.02800
C3407       C  0.19664824  0.85690449  0.57811346     0.07100
C3408       C  0.21771174  0.85528519  0.58268709    -0.03000
Br3409     Br  0.22723014  0.85649586  0.61051679    -0.01600
Br3410     Br  0.25960962  0.84449833  0.57326171    -0.01600
Br3411     Br  0.16114008  0.85668895  0.55120743    -0.01600
Br3412     Br  0.19546889  0.84640485  0.51482644    -0.01600
C3413       C  0.23032518  0.85232449  0.44543967    -0.02700
C3414       C  0.22459184  0.86426015  0.46224278     0.07000
C3415       C  0.20430667  0.87166832  0.46427549    -0.02800
C3416       C  0.18940260  0.86551116  0.45019959    -0.02800
C3417       C  0.19524457  0.85374296  0.43300279     0.07100
C3418       C  0.21589380  0.84763335  0.43046445    -0.03000
Br3419     Br  0.22552518  0.83406885  0.40612596    -0.01600
Br3420     Br  0.25843794  0.84411296  0.44193822    -0.01600
Br3421     Br  0.16102671  0.87202106  0.45575051    -0.01600
Br3422     Br  0.19659646  0.89077513  0.48582583    -0.01600
C3423       C  0.22492355  0.55549997  0.95904507    -0.02700
C3424       C  0.23325259  0.57540972  0.96013002     0.07000
C3425       C  0.25213221  0.57983195  0.95027319    -0.02800
C3426       C  0.26245365  0.56442078  0.93921634    -0.02800
C3427       C  0.25391441  0.54465014  0.93790841     0.07100
C3428       C  0.23523650  0.54020809  0.94798782    -0.03000
Br3429     Br  0.22358805  0.51300755  0.94709304    -0.01600
Br3430     Br  0.20042172  0.54838692  0.97430214    -0.01600
Br3431     Br  0.28805939  0.57042354  0.92552673    -0.01600
Br3432     Br  0.26380146  0.60709841  0.95137485    -0.01600
C3433       C  0.26482678  0.44748809  0.95184925    -0.02700
C3434       C  0.25253019  0.45677427  0.93669672     0.07000
C3435       C  0.23145541  0.45131704  0.93543114    -0.02800
C3436       C  0.22257500  0.43808883  0.94993360    -0.02800
C3437       C  0.23490637  0.42857973  0.96478027     0.07100
C3438       C  0.25602999  0.43349463  0.96582755    -0.03000
Br3439     Br  0.27265050  0.42306536  0.98794537    -0.01600
Br3440     Br  0.29354451  0.45439404  0.95441179    -0.01600
Br3441     Br  0.19323281  0.43352521  0.94941205    -0.01600
Br3442     Br  0.21432603  0.46049540  0.91310764    -0.01600
C3443       C  0.30964437  0.56354908  0.85750977    -0.02700
C3444       C  0.31819570  0.55129748  0.87326618     0.07000
C3445       C  0.33191301  0.56100977  0.88699208    -0.02800
C3446       C  0.33544962  0.58254920  0.88609935    -0.02800
C3447       C  0.32377250  0.59523300  0.87276947     0.07100
C3448       C  0.31065703  0.58527074  0.85853903    -0.03000
Br3449     Br  0.29198331  0.60087433  0.84174056    -0.01600
Br3450     Br  0.29865351  0.55126022  0.83295450    -0.01600
Br3451     Br  0.35720084  0.59408971  0.90257525    -0.01600
Br3452     Br  0.34730075  0.54435562  0.90590621    -0.01600
C3453       C  0.23252263  0.56507739  0.86299266    -0.02700
C3454       C  0.23648938  0.54847218  0.84980181     0.07000
C3455       C  0.22288448  0.54393871  0.83375194    -0.02800
C3456       C  0.20439915  0.55476196  0.83205433    -0.02800
C3457       C  0.19984313  0.57080066  0.84603655     0.07100
C3458       C  0.21395607  0.57576821  0.86161556    -0.03000
Br3459     Br  0.20770152  0.59631182  0.88184216    -0.01600
Br3460     Br  0.25246584  0.57265083  0.88336605    -0.01600
Br3461     Br  0.18438318  0.54592501  0.81204479    -0.01600
Br3462     Br  0.22950251  0.52214900  0.81472579    -0.01600
C3463       C  0.34694085  0.17142615  0.93917727    -0.02700
C3464       C  0.36548661  0.17806044  0.94873805     0.07000
C3465       C  0.38336166  0.17857315  0.93625464    -0.02800
C3466       C  0.38268338  0.17274892  0.91514469    -0.02800
C3467       C  0.36380465  0.16795623  0.90524797     0.07100
C3468       C  0.34601956  0.16711237  0.91773298    -0.03000
Br3469     Br  0.32015086  0.15908166  0.90573246    -0.01600
Br3470     Br  0.32231892  0.16752092  0.95534538    -0.01600
Br3471     Br  0.40817367  0.17210509  0.90001309    -0.01600
Br3472     Br  0.40880197  0.18925711  0.94705499    -0.01600
C3473       C  0.14132606  0.36473136  0.92266629    -0.02700
C3474       C  0.15553096  0.36970488  0.90693536     0.07000
C3475       C  0.17582729  0.37438770  0.91263826    -0.02800
C3476       C  0.18147239  0.37589421  0.93356684    -0.02800
C3477       C  0.16712958  0.37194646  0.94952165     0.07100
C3478       C  0.14716576  0.36562297  0.94378418    -0.03000
Br3479     Br  0.12759046  0.35915605  0.96498088    -0.01600
Br3480     Br  0.11373259  0.35733161  0.91530777    -0.01600
Br3481     Br  0.20928721  0.38319289  0.93993211    -0.01600
Br3482     Br  0.19620752  0.37808495  0.89131134    -0.01600
C3483       C  0.21994562  0.42695075  0.84418461    -0.02700
C3484       C  0.19915290  0.43040951  0.84984561     0.07000
C3485       C  0.19306951  0.45046128  0.85608499    -0.02800
C3486       C  0.20702987  0.46665650  0.85482898    -0.02800
C3487       C  0.22758622  0.46275516  0.85011770     0.07100
C3488       C  0.23385935  0.44333946  0.84365592    -0.03000
Br3489     Br  0.26174659  0.43944947  0.83440537    -0.01600
Br3490     Br  0.23090901  0.39987072  0.83982138    -0.01600
Br3491     Br  0.19823247  0.49454900  0.85997753    -0.01600
Br3492     Br  0.16673486  0.45658913  0.86861002    -0.01600
C3493       C  0.28178341  0.35898351  0.94703850    -0.02700
C3494       C  0.27435485  0.35206090  0.92808287     0.07000
C3495       C  0.25377546  0.34601037  0.92618371    -0.02800
C3496       C  0.24150820  0.34337281  0.94360269    -0.02800
C3497       C  0.24852390  0.35048505  0.96285193     0.07100
C3498       C  0.26895987  0.35853307  0.96439325    -0.03000
Br3499     Br  0.28109000  0.36806967  0.98989985    -0.01600
Br3500     Br  0.31009724  0.36774439  0.94953174    -0.01600
Br3501     Br  0.21608661  0.32826506  0.94055100    -0.01600
Br3502     Br  0.24185940  0.34288355  0.89943713    -0.01600
C3503       C  0.31312745  0.28462442  0.94387121    -0.02700
C3504       C  0.32439194  0.28369304  0.92534713     0.07000
C3505       C  0.33588249  0.26597768  0.92071782    -0.02800
C3506       C  0.33795378  0.25048559  0.93557152    -0.02800
C3507       C  0.32786976  0.25222523  0.95472282     0.07100
C3508       C  0.31444364  0.26863423  0.95817067    -0.03000
Br3509     Br  0.29924503  0.27009458  0.98345653    -0.01600
Br3510     Br  0.29598661  0.30774058  0.95027480    -0.01600
Br3511     Br  0.35588555  0.22762739  0.93035630    -0.01600
Br3512     Br  0.35008741  0.26367523  0.89473352    -0.01600
C3513       C  0.29882603  0.40814693  0.87290373    -0.02700
C3514       C  0.31915459  0.40172239  0.86921340     0.07000
C3515       C  0.33482017  0.41686586  0.86946866    -0.02800
C3516       C  0.32998938  0.43813050  0.87153659    -0.02800
C3517       C  0.30959480  0.44456164  0.87490051     0.07100
C3518       C  0.29432810  0.42908434  0.87681877    -0.03000
Br3519     Br  0.26764584  0.43580805  0.88751120    -0.01600
Br3520     Br  0.27701442  0.38799673  0.87378346    -0.01600
Br3521     Br  0.35125954  0.45855260  0.86969804    -0.01600
Br3522     Br  0.36296284  0.40847001  0.86691941    -0.01600
C3523       C  0.31061299  0.25581036  0.85454600    -0.02700
C3524       C  0.31862585  0.27151956  0.84148492     0.07000
C3525       C  0.33035614  0.26552988  0.82428015    -0.02800
C3526       C  0.33625587  0.24481342  0.82178336    -0.02800
C3527       C  0.33096819  0.22992121  0.83678523     0.07100
C3528       C  0.31758891  0.23539657  0.85274373    -0.03000
Br3529     Br  0.31023084  0.21531414  0.87328032    -0.01600
Br3530     Br  0.28972850  0.26109443  0.87496631    -0.01600
Br3531     Br  0.35115519  0.23680544  0.79731395    -0.01600
Br3532     Br  0.33666780  0.28523658  0.80307120    -0.01600
C3533       C  0.24823717  0.34928006  0.82514356    -0.02700
C3534       C  0.25412541  0.33547441  0.84050327     0.07000
C3535       C  0.23861547  0.32308991  0.84969667    -0.02800
C3536       C  0.21757340  0.32748304  0.84681440    -0.02800
C3537       C  0.21155074  0.34284081  0.83283475     0.07100
C3538       C  0.22725257  0.35148652  0.82003054    -0.03000
Br3539     Br  0.22116418  0.36525100  0.79449801    -0.01600
Br3540     Br  0.26858544  0.36663246  0.81239828    -0.01600
Br3541     Br  0.19725075  0.31123470  0.86108574    -0.01600
Br3542     Br  0.24608875  0.29945454  0.86593980    -0.01600
C3543       C  0.15666349  0.33371456  0.74304541    -0.02700
C3544       C  0.14153585  0.34386442  0.73135496     0.07000
C3545       C  0.12673619  0.35581898  0.74166480    -0.02800
C3546       C  0.12621179  0.35629148  0.76321001    -0.02800
C3547       C  0.14241848  0.34824730  0.77469253     0.07100
C3548       C  0.15759701  0.33658174  0.76458420    -0.03000
Br3549     Br  0.17926233  0.32420576  0.78027836    -0.01600
Br3550     Br  0.17646744  0.31647147  0.72943068    -0.01600
Br3551     Br  0.10178695  0.36464539  0.77734148    -0.01600
Br3552     Br  0.10727693  0.37199556  0.72658517    -0.01600
C3553       C  0.16730573  0.24701701  0.65756031    -0.02700
C3554       C  0.15535038  0.23208908  0.66809477     0.07000
C3555       C  0.14342794  0.23834917  0.68493999    -0.02800
C3556       C  0.14117943  0.25947193  0.68896943    -0.02800
C3557       C  0.14866824  0.27417577  0.67472115     0.07100
C3558       C  0.16291794  0.26802258  0.65983029    -0.03000
Br3559     Br  0.17447159  0.28771071  0.64099992    -0.01600
Br3560     Br  0.18957186  0.23880640  0.63980746    -0.01600
Br3561     Br  0.12699896  0.26833488  0.71351877    -0.01600
Br3562     Br  0.12862486  0.21853293  0.70118123    -0.01600
C3563       C  0.31451339  0.17410599  0.74456470    -0.02700
C3564       C  0.32801618  0.16204804  0.73249165     0.07000
C3565       C  0.34284105  0.14999018  0.74265850    -0.02800
C3566       C  0.34316890  0.14898668  0.76437340    -0.02800
C3567       C  0.33061577  0.16203947  0.77630280     0.07100
C3568       C  0.31628967  0.17460864  0.76620601    -0.03000
Br3569     Br  0.29844142  0.19189498  0.78237656    -0.01600
Br3570     Br  0.29373886  0.19042154  0.73139726    -0.01600
Br3571     Br  0.36012482  0.12892346  0.77775717    -0.01600
Br3572     Br  0.36301429  0.13491003  0.72705850    -0.01600
C3573       C  0.24328939  0.15290109  0.68535160    -0.02700
C3574       C  0.25841930  0.15869647  0.67068870     0.07000
C3575       C  0.25242538  0.17038542  0.65370367    -0.02800
C3576       C  0.23167639  0.17606861  0.65125070    -0.02800
C3577       C  0.21605603  0.16795308  0.66446961     0.07100
C3578       C  0.22229386  0.15692166  0.68194297    -0.03000
Br3579     Br  0.20235037  0.14874685  0.70230541    -0.01600
Br3580     Br  0.25125831  0.13986003  0.71076997    -0.01600
Br3581     Br  0.22594334  0.19568093  0.62986827    -0.01600
Br3582     Br  0.27233228  0.17714503  0.63274886    -0.01600
C3583       C  0.02043688  0.24335460  0.45535487    -0.02700
C3584       C  0.02698342  0.23340810  0.43725406     0.07000
C3585       C  0.04613231  0.23829339  0.42869082    -0.02800
C3586       C  0.05868218  0.25296159  0.43830025    -0.02800
C3587       C  0.05235464  0.26284924  0.45659752     0.07100
C3588       C  0.03242551  0.25894260  0.46426687    -0.03000
Br3589     Br  0.02044365  0.27546736  0.48589845    -0.01600
Br3590     Br  0.99468588  0.23542231  0.46780958    -0.01600
Br3591     Br  0.08342947  0.26128786  0.42484836    -0.01600
Br3592     Br  0.05462907  0.22594859  0.40300001    -0.01600
C3593       C  0.09666599  0.34212310  0.44334362    -0.02700
C3594       C  0.11307527  0.33312312  0.45437889     0.07000
C3595       C  0.13206902  0.33111312  0.44376741    -0.02800
C3596       C  0.13340322  0.33423696  0.42208660    -0.02800
C3597       C  0.11611680  0.34062215  0.41055992     0.07100
C3598       C  0.09816697  0.34589196  0.42188491    -0.03000
Br3599     Br  0.07549400  0.35943485  0.40850226    -0.01600
Br3600     Br  0.07218456  0.35075862  0.45782675    -0.01600
Br3601     Br  0.15887259  0.32817441  0.40828016    -0.01600
Br3602     Br  0.15667537  0.32403397  0.45849629    -0.01600
C3603       C  0.09237328  0.33091295  0.57009427    -0.02700
C3604       C  0.11026469  0.32720358  0.55837478     0.07000
C3605       C  0.12947102  0.32961845  0.56848050    -0.02800
C3606       C  0.13056246  0.33355729  0.58996767    -0.02800
C3607       C  0.11256864  0.33409438  0.60216033     0.07100
C3608       C  0.09339957  0.33275746  0.59177164    -0.03000
Br3609     Br  0.06786025  0.33124752  0.60678916    -0.01600
Br3610     Br  0.06608984  0.33406463  0.55682991    -0.01600
Br3611     Br  0.15685465  0.33930929  0.60231157    -0.01600
Br3612     Br  0.15467674  0.32891634  0.55281910    -0.01600
C3613       C  0.13044548  0.21835255  0.54140983    -0.02700
C3614       C  0.13213399  0.23969857  0.54515373     0.07000
C3615       C  0.13607361  0.24689468  0.56507264    -0.02800
C3616       C  0.13784255  0.23292378  0.58130401    -0.02800
C3617       C  0.13628730  0.21158135  0.57761489     0.07100
C3618       C  0.13264283  0.20431630  0.55757911    -0.03000
Br3619     Br  0.13156024  0.17516142  0.55203808    -0.01600
Br3620     Br  0.12501982  0.20823328  0.51403107    -0.01600
Br3621     Br  0.14110870  0.24338843  0.60876906    -0.01600
Br3622     Br  0.13799957  0.27594590  0.57036614    -0.01600
C3623       C  0.15624459  0.23417286  0.46490675    -0.02700
C3624       C  0.14568174  0.25179079  0.45881987     0.07000
C3625       C  0.13921179  0.25389569  0.43847733    -0.02800
C3626       C  0.13894841  0.23665686  0.42557474    -0.02800
C3627       C  0.14727334  0.21797052  0.43258581     0.07100
C3628       C  0.15708534  0.21721284  0.45179746    -0.03000
Br3629     Br  0.17240691  0.19365009  0.46013956    -0.01600
Br3630     Br  0.16897424  0.23353575  0.49161808    -0.01600
Br3631     Br  0.12621848  0.23839178  0.39886905    -0.01600
Br3632     Br  0.13144205  0.28043026  0.42848873    -0.01600
C3633       C  0.24349410  0.04695435  0.44022656    -0.02700
C3634       C  0.22234512  0.04799951  0.43602435     0.07000
C3635       C  0.21020859  0.06287652  0.44580809    -0.02800
C3636       C  0.21933524  0.07684720  0.45959320    -0.02800
C3637       C  0.24101143  0.07682168  0.46248438     0.07100
C3638       C  0.25299685  0.06219906  0.45196104    -0.03000
Br3639     Br  0.28260536  0.06319675  0.45229821    -0.01600
Br3640     Br  0.25926188  0.02306439  0.43259945    -0.01600
Br3641     Br  0.20128856  0.09470066  0.47502417    -0.01600
Br3642     Br  0.18105606  0.06390051  0.44060893    -0.01600
C3643       C  0.32367110  0.11261836  0.44240729    -0.02700
C3644       C  0.31451254  0.12945028  0.45278548     0.07000
C3645       C  0.31272709  0.14804475  0.44148160    -0.02800
C3646       C  0.31602073  0.14847847  0.41979089    -0.02800
C3647       C  0.32260008  0.13076834  0.40881661     0.07100
C3648       C  0.32748937  0.11313917  0.42084319    -0.03000
Br3649     Br  0.34056408  0.08948983  0.40845063    -0.01600
Br3650     Br  0.33347518  0.08953193  0.45818730    -0.01600
Br3651     Br  0.31025258  0.17351613  0.40534317    -0.01600
Br3652     Br  0.30637838  0.17360830  0.45533500    -0.01600
C3653       C  0.32374274  0.11062080  0.56912421    -0.02700
C3654       C  0.31708386  0.12858078  0.55873773     0.07000
C3655       C  0.31713444  0.14718583  0.57046191    -0.02800
C3656       C  0.32154068  0.14726679  0.59187385    -0.02800
C3657       C  0.32411439  0.12871344  0.60291485     0.07100
C3658       C  0.32583912  0.11033305  0.59096099    -0.03000
Br3659     Br  0.33022249  0.08395683  0.60389255    -0.01600
Br3660     Br  0.33144509  0.08634383  0.55371163    -0.01600
Br3661     Br  0.32591799  0.17338534  0.60546089    -0.01600
Br3662     Br  0.31214843  0.17347486  0.55764463    -0.01600
C3663       C  0.23666366  0.14445975  0.57758575    -0.02700
C3664       C  0.23789923  0.15514678  0.55889787     0.07000
C3665       C  0.22335392  0.17034065  0.55429345    -0.02800
C3666       C  0.20595985  0.17242974  0.56676793    -0.02800
C3667       C  0.20330246  0.15950386  0.58389033     0.07100
C3668       C  0.21912609  0.14624284  0.58986790    -0.03000
Br3669     Br  0.21628202  0.13001310  0.61443255    -0.01600
Br3670     Br  0.25925906  0.12767319  0.58617261    -0.01600
Br3671     Br  0.18623741  0.19336475  0.56045041    -0.01600
Br3672     Br  0.22670287  0.18788205  0.53064320    -0.01600
C3673       C  0.21770052  0.14767941  0.43102373    -0.02700
C3674       C  0.19668087  0.14696477  0.43565916     0.07000
C3675       C  0.19037418  0.14570929  0.45614604    -0.02800
C3676       C  0.20464652  0.14886276  0.47205488    -0.02800
C3677       C  0.22608857  0.15078459  0.46754143     0.07100
C3678       C  0.23235291  0.14945430  0.44672065    -0.03000
Br3679     Br  0.26071777  0.14992551  0.43870726    -0.01600
Br3680     Br  0.22641367  0.14511334  0.40285735    -0.01600
Br3681     Br  0.19347009  0.15176829  0.49955415    -0.01600
Br3682     Br  0.16183642  0.14015447  0.46216292    -0.01600
C3683       C  0.24421625  0.05724102  0.58444290    -0.02700
C3684       C  0.22375626  0.05023944  0.58071387     0.07000
C3685       C  0.21599324  0.05126694  0.56054000    -0.02800
C3686       C  0.22872690  0.05765845  0.54442911    -0.02800
C3687       C  0.24768736  0.06738094  0.54860539     0.07100
C3688       C  0.25551743  0.06675920  0.56868475    -0.03000
Br3689     Br  0.28175354  0.07869777  0.57506967    -0.01600
Br3690     Br  0.25833887  0.05329458  0.61034260    -0.01600
Br3691     Br  0.22065405  0.05131372  0.51649999    -0.01600
Br3692     Br  0.18755827  0.04541393  0.55447831    -0.01600
C3693       C  0.22594926  0.94567387  0.54757481    -0.02700
C3694       C  0.24741672  0.94269947  0.54867375     0.07000
C3695       C  0.25908693  0.95370393  0.56300769    -0.02800
C3696       C  0.24930021  0.96720693  0.57671265    -0.02800
C3697       C  0.22754265  0.96929478  0.57648708     0.07100
C3698       C  0.21598461  0.95844900  0.56175540    -0.03000
Br3699     Br  0.18653456  0.96155005  0.55993781    -0.01600
Br3700     Br  0.20992431  0.93331615  0.52576009    -0.01600
Br3701     Br  0.26647511  0.98207190  0.59586327    -0.01600
Br3702     Br  0.28841038  0.94965051  0.56449319    -0.01600
C3703       C  0.14560986  0.06506343  0.62455717    -0.02700
C3704       C  0.15519993  0.05501480  0.64129237     0.07000
C3705       C  0.16001948  0.06729541  0.65876919    -0.02800
C3706       C  0.15814515  0.08914837  0.65819372    -0.02800
C3707       C  0.15039131  0.09925149  0.64057779     0.07100
C3708       C  0.14364178  0.08674864  0.62399656    -0.03000
Br3709     Br  0.13167411  0.09905179  0.59983032    -0.01600
Br3710     Br  0.13401540  0.04906502  0.60231049    -0.01600
Br3711     Br  0.16855071  0.10523363  0.68083961    -0.01600
Br3712     Br  0.16910963  0.05464197  0.68385785    -0.01600
C3713       C  0.17832820  0.93243470  0.63464109    -0.02700
C3714       C  0.16340155  0.94794336  0.63741790     0.07000
C3715       C  0.14292781  0.94150441  0.64100657    -0.02800
C3716       C  0.13777704  0.92013544  0.64233049    -0.02800
C3717       C  0.15301612  0.90473034  0.64049573     0.07100
C3718       C  0.17343836  0.91133492  0.63724835    -0.03000
Br3719     Br  0.19513031  0.89144560  0.63654206    -0.01600
Br3720     Br  0.20523172  0.93986225  0.62475460    -0.01600
Br3721     Br  0.11003763  0.91186002  0.64820398    -0.01600
Br3722     Br  0.12190682  0.96196688  0.64383460    -0.01600
C3723       C  0.26988045  0.96904829  0.65301447    -0.02700
C3724       C  0.24932041  0.96574196  0.65909962     0.07000
C3725       C  0.24299544  0.94626145  0.66544169    -0.02800
C3726       C  0.25643362  0.92965700  0.66343169    -0.02800
C3727       C  0.27693317  0.93272505  0.65696408     0.07100
C3728       C  0.28344696  0.95245673  0.65110111    -0.03000
Br3729     Br  0.31087624  0.95696492  0.64077182    -0.01600
Br3730     Br  0.27972894  0.99673042  0.64887122    -0.01600
Br3731     Br  0.24579237  0.90247899  0.66743058    -0.01600
Br3732     Br  0.21615878  0.94244045  0.67737437    -0.01600
C3733       C  0.25282903  0.04641694  0.68288626    -0.02700
C3734       C  0.23640106  0.05211429  0.67026784     0.07000
C3735       C  0.23761249  0.07031442  0.65874713    -0.02800
C3736       C  0.25625743  0.08113136  0.65755395    -0.02800
C3737       C  0.27337603  0.07404869  0.66851652     0.07100
C3738       C  0.27147241  0.05697820  0.68161999    -0.03000
Br3739     Br  0.29484603  0.04732017  0.69696601    -0.01600
Br3740     Br  0.25016774  0.02262254  0.70024045    -0.01600
Br3741     Br  0.25855781  0.10521266  0.64058895    -0.01600
Br3742     Br  0.21407622  0.07933045  0.64348004    -0.01600
C3743       C  0.02483461  0.23021271  0.55068475    -0.02700
C3744       C  0.02421416  0.23767871  0.57091778     0.07000
C3745       C  0.03665722  0.25463117  0.57641570    -0.02800
C3746       C  0.05023504  0.26335622  0.56208154    -0.02800
C3747       C  0.04955728  0.25732962  0.54127187     0.07100
C3748       C  0.03727296  0.23992445  0.53584172    -0.03000
Br3749     Br  0.03726188  0.22808453  0.50855015    -0.01600
Br3750     Br  0.00727660  0.20744798  0.54299042    -0.01600
Br3751     Br  0.07188642  0.28101550  0.57205282    -0.01600
Br3752     Br  0.03524432  0.26676028  0.60335039    -0.01600
C3753       C  0.05684514  0.19118067  0.62892274    -0.02700
C3754       C  0.04164990  0.17651210  0.63429583     0.07000
C3755       C  0.04852505  0.15802754  0.64338433    -0.02800
C3756       C  0.06993948  0.15399013  0.64587666    -0.02800
C3757       C  0.08494440  0.16871069  0.64022773     0.07100
C3758       C  0.07803095  0.18748689  0.63206094    -0.03000
Br3759     Br  0.09772857  0.20855878  0.62524284    -0.01600
Br3760     Br  0.04887843  0.21697287  0.61749629    -0.01600
Br3761     Br  0.07893289  0.12856450  0.65774171    -0.01600
Br3762     Br  0.02855781  0.13868753  0.65332425    -0.01600
C3763       C  0.01924340  0.27932742  0.65462633    -0.02700
C3764       C  0.02215648  0.25834271  0.65898730     0.07000
C3765       C  0.04130264  0.25129833  0.66562052    -0.02800
C3766       C  0.05808185  0.26483906  0.66585632    -0.02800
C3767       C  0.05545469  0.28565036  0.66024568     0.07100
C3768       C  0.03583291  0.29297295  0.65524754    -0.03000
Br3769     Br  0.03125650  0.32174560  0.64991042    -0.01600
Br3770     Br  0.99242007  0.28916055  0.64688106    -0.01600
Br3771     Br  0.08482872  0.25445674  0.67286194    -0.01600
Br3772     Br  0.04462068  0.22305081  0.67374940    -0.01600
C3773       C  0.62775432  0.16990020  0.91812114    -0.02700
C3774       C  0.60990205  0.16945427  0.90576347     0.07000
C3775       C  0.59095461  0.17382786  0.91568750    -0.02800
C3776       C  0.58996634  0.17902159  0.93696309    -0.02800
C3777       C  0.60807141  0.18080764  0.94918951     0.07100
C3778       C  0.62698782  0.17577084  0.93927462    -0.03000
Br3779     Br  0.65265342  0.17708596  0.95393362    -0.01600
Br3780     Br  0.65359841  0.16133999  0.90634781    -0.01600
Br3781     Br  0.56292738  0.18325360  0.94873296    -0.01600
Br3782     Br  0.56573772  0.17392221  0.90018153    -0.01600
C3783       C  0.63597461  0.14950588  0.76748237    -0.02700
C3784       C  0.64339099  0.16798592  0.77608971     0.07000
C3785       C  0.65042254  0.18350193  0.76232320    -0.02800
C3786       C  0.65126101  0.17983371  0.74079202    -0.02800
C3787       C  0.64342206  0.16140801  0.73251459     0.07100
C3788       C  0.63410576  0.14726418  0.74605342    -0.03000
Br3789     Br  0.61767751  0.12510787  0.73499327    -0.01600
Br3790     Br  0.62915799  0.12648998  0.78457811    -0.01600
Br3791     Br  0.66334034  0.19990767  0.72274713    -0.01600
Br3792     Br  0.66017029  0.20950203  0.77258378    -0.01600
C3793       C  0.67309128  0.41008484  0.88788994    -0.02700
C3794       C  0.65595645  0.40387773  0.87628001     0.07000
C3795       C  0.64349700  0.41907786  0.86735156    -0.02800
C3796       C  0.64796764  0.44023710  0.87033778    -0.02800
C3797       C  0.66390636  0.44646420  0.88364421     0.07100
C3798       C  0.67665901  0.43109720  0.89209892    -0.03000
Br3799     Br  0.70018025  0.43858012  0.90826696    -0.01600
Br3800     Br  0.69281203  0.38979638  0.89646201    -0.01600
Br3801     Br  0.63337818  0.46067482  0.85497470    -0.01600
Br3802     Br  0.62057299  0.41076369  0.85072798    -0.01600
C3803       C  0.64787919  0.26363996  0.92142179    -0.02700
C3804       C  0.63540714  0.28132447  0.92007106     0.07000
C3805       C  0.62190809  0.28617373  0.93607515    -0.02800
C3806       C  0.62458693  0.27719506  0.95520598    -0.02800
C3807       C  0.63719071  0.25948727  0.95700952     0.07100
C3808       C  0.64873002  0.25273240  0.93996531    -0.03000
Br3809     Br  0.66857244  0.23102095  0.94297972    -0.01600
Br3810     Br  0.66432390  0.25429495  0.89848636    -0.01600
Br3811     Br  0.61298349  0.29202721  0.97839880    -0.01600
Br3812     Br  0.60001287  0.30572715  0.93177690    -0.01600
C3813       C  0.62743626  0.26835202  0.85391783    -0.02700
C3814       C  0.64413700  0.27650499  0.84271806     0.07000
C3815       C  0.65831756  0.26271448  0.83359025    -0.02800
C3816       C  0.65550564  0.24124112  0.83511849    -0.02800
C3817       C  0.63857511  0.23318529  0.84587789     0.07100
C3818       C  0.62535274  0.24692518  0.85631652    -0.03000
Br3819     Br  0.60504525  0.23620798  0.87514033    -0.01600
Br3820     Br  0.60743540  0.28626255  0.86655034    -0.01600
Br3821     Br  0.67499225  0.22292895  0.82254008    -0.01600
Br3822     Br  0.68135878  0.27319105  0.81811228    -0.01600
C3823       C  0.76815207  0.46352862  0.87994746    -0.02700
C3824       C  0.74759034  0.46181941  0.87331699     0.07000
C3825       C  0.74056548  0.44339187  0.86457686    -0.02800
C3826       C  0.75372408  0.42645720  0.86351733    -0.02800
C3827       C  0.77444821  0.42827423  0.86949872     0.07100
C3828       C  0.78148345  0.44672934  0.87822594    -0.03000
Br3829     Br  0.80966168  0.44942130  0.88677527    -0.01600
Br3830     Br  0.77885202  0.48963507  0.88914911    -0.01600
Br3831     Br  0.74281160  0.40042549  0.85499746    -0.01600
Br3832     Br  0.71326951  0.44131616  0.85336364    -0.01600
C3833       C  0.84554841  0.44914266  0.80624900    -0.02700
C3834       C  0.82755005  0.43742554  0.80503941     0.07000
C3835       C  0.81310911  0.44165466  0.78952394    -0.02800
C3836       C  0.81874784  0.45369198  0.77257834    -0.02800
C3837       C  0.83873732  0.46182046  0.77160545     0.07100
C3838       C  0.85125916  0.46128007  0.78944881    -0.03000
Br3839     Br  0.87607628  0.47743143  0.79163223    -0.01600
Br3840     Br  0.86236191  0.44873182  0.83064959    -0.01600
Br3841     Br  0.79919926  0.45831253  0.75093299    -0.01600
Br3842     Br  0.78519949  0.43211519  0.79238489    -0.01600
C3843       C  0.74129926  0.35596025  0.82603481    -0.02700
C3844       C  0.75624313  0.34406585  0.83648319     0.07000
C3845       C  0.74990551  0.32623522  0.84679536    -0.02800
C3846       C  0.72882853  0.32179418  0.84835912    -0.02800
C3847       C  0.71410801  0.33661712  0.84250414     0.07100
C3848       C  0.72033017  0.35325759  0.83037189    -0.03000
Br3849     Br  0.70073395  0.37353741  0.82161032    -0.01600
Br3850     Br  0.74942387  0.37632839  0.80602428    -0.01600
Br3851     Br  0.72003307  0.29522805  0.85811908    -0.01600
Br3852     Br  0.76948378  0.30903211  0.86051347    -0.01600
C3853       C  0.90125054  0.16816308  0.65466763    -0.02700
C3854       C  0.88946515  0.16137125  0.63752739     0.07000
C3855       C  0.90084605  0.15566491  0.61952292    -0.02800
C3856       C  0.92252064  0.15812080  0.61836940    -0.02800
C3857       C  0.93385891  0.16730779  0.63449080     0.07100
C3858       C  0.92300650  0.17108248  0.65319340    -0.03000
Br3859     Br  0.93759696  0.17954609  0.67756202    -0.01600
Br3860     Br  0.88807414  0.17262354  0.68090123    -0.01600
Br3861     Br  0.93705733  0.14696428  0.59490634    -0.01600
Br3862     Br  0.88761506  0.14463303  0.59524954    -0.01600
C3863       C  0.74533205  0.15134024  0.64910510    -0.02700
C3864       C  0.75768019  0.16354201  0.66211977     0.07000
C3865       C  0.74793576  0.17630502  0.67674380    -0.02800
C3866       C  0.72630604  0.17645974  0.67863902    -0.02800
C3867       C  0.71393929  0.16466595  0.66523765     0.07100
C3868       C  0.72368895  0.15287556  0.64988858    -0.03000
Br3869     Br  0.70722766  0.13971943  0.62927330    -0.01600
Br3870     Br  0.75808624  0.13254471  0.63006015    -0.01600
Br3871     Br  0.71349493  0.19385862  0.69884832    -0.01600
Br3872     Br  0.76444967  0.19319622  0.69463556    -0.01600
C3873       C  0.86666814  0.41492575  0.65668964    -0.02700
C3874       C  0.85971034  0.39992045  0.67090935     0.07000
C3875       C  0.85290055  0.40693716  0.69020114    -0.02800
C3876       C  0.85110014  0.42810208  0.69467740    -0.02800
C3877       C  0.85888836  0.44345904  0.68110289     0.07100
C3878       C  0.86661394  0.43639165  0.66185357    -0.03000
Br3879     Br  0.87570234  0.45607793  0.64174958    -0.01600
Br3880     Br  0.87601945  0.40614966  0.62997735    -0.01600
Br3881     Br  0.83758382  0.43469015  0.72011861    -0.01600
Br3882     Br  0.84876331  0.38738229  0.71208762    -0.01600
C3883       C  0.90346773  0.26320036  0.65063306    -0.02700
C3884       C  0.90638230  0.27544803  0.66814417     0.07000
C3885       C  0.91994810  0.26902421  0.68368573    -0.02800
C3886       C  0.93363171  0.25297184  0.67963474    -0.02800
C3887       C  0.93269253  0.24271619  0.66071137     0.07100
C3888       C  0.91633250  0.24635990  0.64721753    -0.03000
Br3889     Br  0.91150252  0.22820886  0.62436578    -0.01600
Br3890     Br  0.88212685  0.26977008  0.63137021    -0.01600
Br3891     Br  0.95414236  0.24533400  0.69943761    -0.01600
Br3892     Br  0.91949050  0.28139934  0.71058356    -0.01600
C3893       C  0.81296676  0.35477011  0.74038443    -0.02700
C3894       C  0.82623074  0.33854062  0.73555931     0.07000
C3895       C  0.83317722  0.32575241  0.75172360    -0.02800
C3896       C  0.82930044  0.33080347  0.77242146    -0.02800
C3897       C  0.81898600  0.34914171  0.77741787     0.07100
C3898       C  0.81002355  0.36063472  0.76112382    -0.03000
Br3899     Br  0.79471301  0.38536797  0.76628255    -0.01600
Br3900     Br  0.79863276  0.36877374  0.71869480    -0.01600
Br3901     Br  0.83723087  0.31175727  0.79369556    -0.01600
Br3902     Br  0.84773490  0.30067288  0.74570017    -0.01600
C3903       C  0.83331984  0.23442851  0.68262255    -0.02700
C3904       C  0.81877834  0.22861180  0.66795972     0.07000
C3905       C  0.80608589  0.24395215  0.65918625    -0.02800
C3906       C  0.81021237  0.26497550  0.66241038    -0.02800
C3907       C  0.82617145  0.27103020  0.67560880     0.07100
C3908       C  0.83667487  0.25544724  0.68694665    -0.03000
Br3909     Br  0.85643764  0.26168070  0.70811249    -0.01600
Br3910     Br  0.84966751  0.21358418  0.69569084    -0.01600
Br3911     Br  0.79361224  0.28536561  0.64887543    -0.01600
Br3912     Br  0.78311072  0.23626504  0.64205352    -0.01600
C3913       C  0.53010383  0.27894249  0.95964830    -0.02700
C3914       C  0.53364635  0.27918543  0.93832283     0.07000
C3915       C  0.55069807  0.26843387  0.93025290    -0.02800
C3916       C  0.56361095  0.25709377  0.94334786    -0.02800
C3917       C  0.55955611  0.25629916  0.96460340     0.07100
C3918       C  0.54311875  0.26783918  0.97276440    -0.03000
Br3919     Br  0.53858262  0.26918093  0.00196853    -0.01600
Br3920     Br  0.50657855  0.29313972  0.97071596    -0.01600
Br3921     Br  0.58633067  0.24167619  0.93210132    -0.01600
Br3922     Br  0.55610288  0.26838752  0.90121001    -0.01600
C3923       C  0.41153587  0.27267434  0.95555026    -0.02700
C3924       C  0.41694736  0.25472183  0.96640613     0.07000
C3925       C  0.43733638  0.24789401  0.96638621    -0.02800
C3926       C  0.45186565  0.25777896  0.95403202    -0.02800
C3927       C  0.44635677  0.27535316  0.94270694     0.07100
C3928       C  0.42635566  0.28307795  0.94388005    -0.03000
Br3929     Br  0.41902258  0.30712051  0.92840952    -0.01600
Br3930     Br  0.38371601  0.28264245  0.95560263    -0.01600
Br3931     Br  0.47892078  0.24618555  0.95187724    -0.01600
Br3932     Br  0.44571767  0.22570223  0.98410672    -0.01600
C3933       C  0.42117228  0.34418091  0.88797877    -0.02700
C3934       C  0.43253196  0.33264132  0.87334146     0.07000
C3935       C  0.42154803  0.32548274  0.85576486    -0.02800
C3936       C  0.39970428  0.32700752  0.85459652    -0.02800
C3937       C  0.38823235  0.33693526  0.87020456     0.07100
C3938       C  0.39947421  0.34621984  0.88648487    -0.03000
Br3939     Br  0.38521613  0.36240793  0.90692039    -0.01600
Br3940     Br  0.43548303  0.35871351  0.90957699    -0.01600
Br3941     Br  0.38535924  0.31379566  0.83231291    -0.01600
Br3942     Br  0.43596542  0.31393451  0.83259199    -0.01600
C3943       C  0.54893061  0.34394764  0.89010003    -0.02700
C3944       C  0.53863263  0.33592339  0.87260500     0.07000
C3945       C  0.55007411  0.33462991  0.85401619    -0.02800
C3946       C  0.57171469  0.33748848  0.85380063    -0.02800
C3947       C  0.58228372  0.34355445  0.87183712     0.07100
C3948       C  0.57025431  0.34841376  0.88940158    -0.03000
Br3949     Br  0.58269033  0.36252934  0.91243132    -0.01600
Br3950     Br  0.53455647  0.34850514  0.91568301    -0.01600
Br3951     Br  0.58661465  0.33196844  0.82874680    -0.01600
Br3952     Br  0.53600023  0.33031411  0.82827437    -0.01600
C3953       C  0.54465873  0.25028866  0.84672188    -0.02700
C3954       C  0.52635624  0.24489612  0.85648530     0.07000
C3955       C  0.52156805  0.22415472  0.86063449    -0.02800
C3956       C  0.53528848  0.20875409  0.85496552    -0.02800
C3957       C  0.55397509  0.21416990  0.84574854     0.07100
C3958       C  0.55812211  0.23487784  0.84046782    -0.03000
Br3959     Br  0.58160516  0.24284225  0.82425880    -0.01600
Br3960     Br  0.55233755  0.27881416  0.84415064    -0.01600
Br3961     Br  0.52752740  0.18022255  0.85796429    -0.01600
Br3962     Br  0.49673928  0.21651873  0.87491384    -0.01600
C3963       C  0.42496930  0.24665223  0.86492565    -0.02700
C3964       C  0.44305150  0.24941960  0.85350644     0.07000
C3965       C  0.44911798  0.23465678  0.83888071    -0.02800
C3966       C  0.43727139  0.21690511  0.83598370    -0.02800
C3967       C  0.41938881  0.21391793  0.84776991     0.07100
C3968       C  0.41348745  0.22855452  0.86260032    -0.03000
Br3969     Br  0.39025317  0.22358282  0.88025306    -0.01600
Br3970     Br  0.41639625  0.26758084  0.88411948    -0.01600
Br3971     Br  0.44642778  0.19577687  0.81716979    -0.01600
Br3972     Br  0.47400634  0.23855748  0.82326218    -0.01600
C3973       C  0.91698630  0.26137675  0.56155948    -0.02700
C3974       C  0.91066275  0.25040875  0.54420685     0.07000
C3975       C  0.91876082  0.23063701  0.54048631    -0.02800
C3976       C  0.93277205  0.22179847  0.55443234    -0.02800
C3977       C  0.93965088  0.23323193  0.57165080     0.07100
C3978       C  0.93248911  0.25372672  0.57420267    -0.03000
Br3979     Br  0.94502885  0.27298063  0.59324201    -0.01600
Br3980     Br  0.90287433  0.28599849  0.56934445    -0.01600
Br3981     Br  0.94224545  0.19416625  0.54952448    -0.01600
Br3982     Br  0.91095908  0.21576176  0.51605394    -0.01600
C3983       C  0.94377646  0.25896315  0.43967139    -0.02700
C3984       C  0.94133012  0.23845112  0.43281749     0.07000
C3985       C  0.92390904  0.22715384  0.43841791    -0.02800
C3986       C  0.90878530  0.23631500  0.45075788    -0.02800
C3987       C  0.91163689  0.25657654  0.45853419     0.07100
C3988       C  0.92911188  0.26793995  0.45265264    -0.03000
Br3989     Br  0.93390724  0.29548335  0.46288772    -0.01600
Br3990     Br  0.96770257  0.27486720  0.43198616    -0.01600
Br3991     Br  0.88370568  0.22108936  0.45564355    -0.01600
Br3992     Br  0.92037822  0.19941449  0.42836945    -0.01600
C3993       C  0.85569911  0.30840668  0.43554729    -0.02700
C3994       C  0.85520881  0.32332100  0.45140449     0.07000
C3995       C  0.85416701  0.34419737  0.44544770    -0.02800
C3996       C  0.85488612  0.34973436  0.42421202    -0.02800
C3997       C  0.85372718  0.33445500  0.40867228     0.07100
C3998       C  0.85307792  0.31380475  0.41481990    -0.03000
Br3999     Br  0.84877191  0.29240548  0.39481836    -0.01600
Br4000     Br  0.86238716  0.28044782  0.44118329    -0.01600
Br4001     Br  0.85697677  0.37813525  0.41638793    -0.01600
Br4002     Br  0.85054049  0.36498861  0.46615155    -0.01600
C4003       C  0.87812939  0.33085734  0.56895993    -0.02700
C4004       C  0.85992105  0.32538715  0.55838924     0.07000
C4005       C  0.84142603  0.32627640  0.56999724    -0.02800
C4006       C  0.84165326  0.32844942  0.59189692    -0.02800
C4007       C  0.86033454  0.33125065  0.60292224     0.07100
C4008       C  0.87856014  0.33297375  0.59077843    -0.03000
Br4009     Br  0.90493531  0.33817746  0.60333049    -0.01600
Br4010     Br  0.90253432  0.33756164  0.55330206    -0.01600
Br4011     Br  0.81594272  0.32578724  0.60646888    -0.01600
Br4012     Br  0.81526723  0.32571071  0.55613313    -0.01600
C4013       C  0.83634688  0.24891603  0.57060451    -0.02700
C4014       C  0.83964240  0.24226317  0.55022600     0.07000
C4015       C  0.84800122  0.22208493  0.54683530    -0.02800
C4016       C  0.85052334  0.20861370  0.56331421    -0.02800
C4017       C  0.84382291  0.21446110  0.58279839     0.07100
C4018       C  0.83870916  0.23504023  0.58678359    -0.03000
Br4019     Br  0.83473385  0.24413999  0.61458389    -0.01600
Br4020     Br  0.82718011  0.27622928  0.57706860    -0.01600
Br4021     Br  0.86158289  0.18133157  0.55898683    -0.01600
Br4022     Br  0.85593743  0.21107496  0.52018394    -0.01600
C4023       C  0.81641905  0.22493819  0.46404124    -0.02700
C4024       C  0.81780351  0.24598110  0.46028889     0.07000
C4025       C  0.81504923  0.25307653  0.44026831    -0.02800
C4026       C  0.81607021  0.23918160  0.42357290    -0.02800
C4027       C  0.81998499  0.21791889  0.42724014     0.07100
C4028       C  0.81819170  0.21080603  0.44785868    -0.03000
Br4029     Br  0.81711639  0.18203682  0.45514208    -0.01600
Br4030     Br  0.81135205  0.21593075  0.49170844    -0.01600
Br4031     Br  0.81146319  0.24999855  0.39643474    -0.01600
Br4032     Br  0.80776040  0.28146471  0.43661689    -0.01600
C4033       C  0.73778983  0.96768564  0.45970141    -0.02700
C4034       C  0.75309828  0.96132914  0.44544433     0.07000
C4035       C  0.75242554  0.94097079  0.43786221    -0.02800
C4036       C  0.73779252  0.92702806  0.44570721    -0.02800
C4037       C  0.72261513  0.93365400  0.45974452     0.07100
C4038       C  0.72208205  0.95428104  0.46573590    -0.03000
Br4039     Br  0.70050999  0.96372446  0.48383753    -0.01600
Br4040     Br  0.73824791  0.99463663  0.47213076    -0.01600
Br4041     Br  0.73888037  0.89861968  0.43761959    -0.01600
Br4042     Br  0.77043530  0.93207068  0.41607971    -0.01600
C4043       C  0.82925042  0.06532139  0.39434485    -0.02700
C4044       C  0.81970781  0.05339963  0.37863594     0.07000
C4045       C  0.81663701  0.06338224  0.35941757    -0.02800
C4046       C  0.82089146  0.08473430  0.35676546    -0.02800
C4047       C  0.82773528  0.09721845  0.37333746     0.07100
C4048       C  0.83288089  0.08679444  0.39192099    -0.03000
Br4049     Br  0.84520832  0.10119626  0.41489509    -0.01600
Br4050     Br  0.83874643  0.05239337  0.41936628    -0.01600
Br4051     Br  0.81856251  0.09627528  0.32953320    -0.01600
Br4052     Br  0.80674607  0.04829657  0.33589634    -0.01600
C4053       C  0.81817379  0.93563157  0.36293732    -0.02700
C4054       C  0.81729117  0.94649219  0.38191956     0.07000
C4055       C  0.82166928  0.93511736  0.39995402    -0.02800
C4056       C  0.82415308  0.91339147  0.39935564    -0.02800
C4057       C  0.82362064  0.90212392  0.38045984     0.07100
C4058       C  0.82117763  0.91389222  0.36217148    -0.03000
Br4059     Br  0.82216998  0.90080978  0.33547247    -0.01600
Br4060     Br  0.81687965  0.95076036  0.33744640    -0.01600
Br4061     Br  0.82672106  0.89962582  0.42555326    -0.01600
Br4062     Br  0.82390261  0.94880906  0.42632295    -0.01600
C4063       C  0.71052273  0.95635266  0.37895583    -0.02700
C4064       C  0.73039843  0.95556656  0.37018374     0.07000
C4065       C  0.73476072  0.94140263  0.35450375    -0.02800
C4066       C  0.71916629  0.92867368  0.34678624    -0.02800
C4067       C  0.69907486  0.92973604  0.35521280     0.07100
C4068       C  0.69489195  0.94368165  0.37133200    -0.03000
Br4069     Br  0.66740223  0.94706022  0.38217534    -0.01600
Br4070     Br  0.70387997  0.97529275  0.40104644    -0.01600
Br4071     Br  0.72617949  0.90971249  0.32491761    -0.01600
Br4072     Br  0.76251072  0.93839489  0.34461984    -0.01600
C4073       C  0.71060192  0.04289217  0.37207112    -0.02700
C4074       C  0.72945996  0.04135986  0.36118526     0.07000
C4075       C  0.73192915  0.05266671  0.34292634    -0.02800
C4076       C  0.71687872  0.06699717  0.33724949    -0.02800
C4077       C  0.69753867  0.06684316  0.34729024     0.07100
C4078       C  0.69408595  0.05293011  0.36322546    -0.03000
Br4079     Br  0.66668092  0.04404140  0.37013325    -0.01600
Br4080     Br  0.70668327  0.03311887  0.39983724    -0.01600
Br4081     Br  0.72347531  0.08656331  0.31598680    -0.01600
Br4082     Br  0.75418164  0.04712178  0.32428120    -0.01600
C4083       C  0.95669479  0.73931419  0.56289240    -0.02700
C4084       C  0.95387265  0.76036511  0.56732624     0.07000
C4085       C  0.93764122  0.77092959  0.55821050    -0.02800
C4086       C  0.92239971  0.75991696  0.54763084    -0.02800
C4087       C  0.92430057  0.73834821  0.54423748     0.07100
C4088       C  0.94180924  0.72819808  0.55178424    -0.03000
Br4089     Br  0.94615541  0.69935720  0.54654139    -0.01600
Br4090     Br  0.98249614  0.72652183  0.56952638    -0.01600
Br4091     Br  0.89834336  0.77491519  0.53930824    -0.01600
Br4092     Br  0.93667446  0.80060258  0.55942439    -0.01600
C4093       C  0.05029949  0.83037272  0.65374704    -0.02700
C4094       C  0.03827234  0.83353001  0.63570072     0.07000
C4095       C  0.04859011  0.84227309  0.61857217    -0.02800
C4096       C  0.07034495  0.84454688  0.61830199    -0.02800
C4097       C  0.08259927  0.83916439  0.63557022     0.07100
C4098       C  0.07203215  0.83298039  0.65359986    -0.03000
Br4099     Br  0.08719408  0.82691093  0.67828397    -0.01600
Br4100     Br  0.03736547  0.82345395  0.67962586    -0.01600
Br4101     Br  0.08297442  0.85585589  0.59388025    -0.01600
Br4102     Br  0.03314345  0.85265929  0.59557989    -0.01600
C4103       C  0.91662562  0.81197956  0.61582405    -0.02700
C4104       C  0.93075542  0.82418108  0.62695364     0.07000
C4105       C  0.92252055  0.83995204  0.63957928    -0.02800
C4106       C  0.90101832  0.84413130  0.63963716    -0.02800
C4107       C  0.88744551  0.83306684  0.62670375     0.07100
C4108       C  0.89585383  0.81764064  0.61399892    -0.03000
Br4109     Br  0.87938030  0.80419358  0.59345530    -0.01600
Br4110     Br  0.92383203  0.78440648  0.60822935    -0.01600
Br4111     Br  0.89021026  0.86602521  0.65635045    -0.01600
Br4112     Br  0.94030013  0.85505344  0.65772131    -0.01600
C4113       C  0.92957476  0.74830515  0.66685594    -0.02700
C4114       C  0.94351533  0.74459601  0.65063320     0.07000
C4115       C  0.94005272  0.72763548  0.63727920    -0.02800
C4116       C  0.92228254  0.71571595  0.63917094    -0.02800
C4117       C  0.90917138  0.71856621  0.65602612     0.07100
C4118       C  0.91280001  0.73495828  0.66994068    -0.03000
Br4119     Br  0.89629078  0.73824034  0.69445778    -0.01600
Br4120     Br  0.93470345  0.77004033  0.68652458    -0.01600
Br4121     Br  0.91586174  0.69521736  0.61845103    -0.01600
Br4122     Br  0.95984228  0.71865747  0.61720775    -0.01600
C4123       C  0.03659273  0.74712268  0.67803397    -0.02700
C4124       C  0.03823408  0.75868375  0.65994662     0.07000
C4125       C  0.05684040  0.75832812  0.64873208    -0.02800
C4126       C  0.07125139  0.74279041  0.65237697    -0.02800
C4127       C  0.06781808  0.72880862  0.66835448     0.07100
C4128       C  0.05169700  0.73248402  0.68246255    -0.03000
Br4129     Br  0.05039029  0.71842341  0.70826025    -0.01600
Br4130     Br  0.01340307  0.75039402  0.69624333    -0.01600
Br4131     Br  0.09495336  0.73978139  0.63492514    -0.01600
Br4132     Br  0.06237480  0.77914388  0.62845004    -0.01600
C4133       C  0.93090472  0.41991049  0.75129025    -0.02700
C4134       C  0.94996074  0.42676276  0.75899281     0.07000
C4135       C  0.95796711  0.44578678  0.75234745    -0.02800
C4136       C  0.94617081  0.45838180  0.73956428    -0.02800
C4137       C  0.92669228  0.45180276  0.73301698     0.07100
C4138       C  0.91954153  0.43222684  0.73804456    -0.03000
Br4139     Br  0.89336904  0.42298169  0.72790427    -0.01600
Br4140     Br  0.91934396  0.39423688  0.75969502    -0.01600
Br4141     Br  0.95635299  0.48493555  0.73119031    -0.01600
Br4142     Br  0.98522420  0.45448772  0.75968415    -0.01600
C4143       C  0.04810750  0.39005239  0.84242389    -0.02700
C4144       C  0.03749421  0.37143706  0.83842672     0.07000
C4145       C  0.04875740  0.35283222  0.84023667    -0.02800
C4146       C  0.07032263  0.35301768  0.84321701    -0.02800
C4147       C  0.08129916  0.37177244  0.84456674     0.07100
C4148       C  0.06971748  0.39032754  0.84473906    -0.03000
Br4149     Br  0.08292694  0.41695526  0.84669712    -0.01600
Br4150     Br  0.03345155  0.41568912  0.84530592    -0.01600
Br4151     Br  0.08451793  0.32719694  0.84627112    -0.01600
Br4152     Br  0.03468542  0.32664340  0.84020959    -0.01600
C4153       C  0.92358363  0.36123927  0.84637674    -0.02700
C4154       C  0.93146209  0.37632063  0.83264247     0.07000
C4155       C  0.91692291  0.38981429  0.82349369    -0.02800
C4156       C  0.89566558  0.38631561  0.82553598    -0.02800
C4157       C  0.88786374  0.37246056  0.84019791     0.07100
C4158       C  0.90209931  0.35991231  0.85070172    -0.03000
Br4159     Br  0.89234505  0.34121235  0.87138613    -0.01600
Br4160     Br  0.94213742  0.34351468  0.86091035    -0.01600
Br4161     Br  0.87721586  0.39884563  0.80604071    -0.01600
Br4162     Br  0.92478676  0.41463780  0.80927707    -0.01600
C4163       C  0.90996538  0.34522712  0.74128379    -0.02700
C4164       C  0.91672086  0.34161397  0.72094724     0.07000
C4165       C  0.93687666  0.33489728  0.71744441    -0.02800
C4166       C  0.95031787  0.33273187  0.73401712    -0.02800
C4167       C  0.94437558  0.33920086  0.75389396     0.07100
C4168       C  0.92368789  0.34369010  0.75781864    -0.03000
Br4169     Br  0.91399483  0.34779130  0.78560327    -0.01600
Br4170     Br  0.88210384  0.35321100  0.74663060    -0.01600
Br4171     Br  0.97642415  0.31937995  0.72989253    -0.01600
Br4172     Br  0.94598162  0.32814353  0.68997958    -0.01600
C4173       C  0.04104411  0.32506831  0.75267457    -0.02700
C4174       C  0.02584814  0.34004234  0.75058156     0.07000
C4175       C  0.02389908  0.35083125  0.73172114    -0.02800
C4176       C  0.03946937  0.34986976  0.71709825    -0.02800
C4177       C  0.05588004  0.33631652  0.72011145     0.07100
C4178       C  0.05554378  0.32248319  0.73689269    -0.03000
Br4179     Br  0.07396681  0.29934128  0.73795638    -0.01600
Br4180     Br  0.04294980  0.30937462  0.77760760    -0.01600
Br4181     Br  0.03891467  0.36901663  0.69418030    -0.01600
Br4182     Br  0.00117991  0.36898565  0.72593286    -0.01600
C4183       C  0.56152048  0.93919621  0.75666750    -0.02700
C4184       C  0.55513333  0.95760805  0.76598954     0.07000
C4185       C  0.53675793  0.96680747  0.75965721    -0.02800
C4186       C  0.52541674  0.95821764  0.74351547    -0.02800
C4187       C  0.53175908  0.93973190  0.73421583     0.07100
C4188       C  0.55024338  0.93053834  0.74040974    -0.03000
Br4189     Br  0.56032534  0.90631205  0.72658466    -0.01600
Br4190     Br  0.58545623  0.92566960  0.76677642    -0.01600
Br4191     Br  0.50089595  0.97164131  0.73396504    -0.01600
Br4192     Br  0.52718791  0.99129742  0.77329500    -0.01600
C4193       C  0.63240449  0.06663334  0.83093794    -0.02700
C4194       C  0.61392170  0.05496316  0.83209618     0.07000
C4195       C  0.59676094  0.06510758  0.84084431    -0.02800
C4196       C  0.59717200  0.08662141  0.84502322    -0.02800
C4197       C  0.61436942  0.09902408  0.83963343     0.07100
C4198       C  0.63234388  0.08847566  0.83332308    -0.03000
Br4199     Br  0.65702980  0.10363717  0.82717485    -0.01600
Br4200     Br  0.65846854  0.05283758  0.82905489    -0.01600
Br4201     Br  0.57463104  0.09861664  0.86016562    -0.01600
Br4202     Br  0.57349730  0.04910278  0.84991854    -0.01600
C4203       C  0.63663403  0.93710495  0.83429237    -0.02700
C4204       C  0.61784651  0.94844504  0.83442325     0.07000
C4205       C  0.60029385  0.93777219  0.84201081    -0.02800
C4206       C  0.60128679  0.91661109  0.84762089    -0.02800
C4207       C  0.61906994  0.90451606  0.84381809     0.07100
C4208       C  0.63707920  0.91546247  0.83815411    -0.03000
Br4209     Br  0.66282527  0.90117160  0.83545641    -0.01600
Br4210     Br  0.66256373  0.95091715  0.82967863    -0.01600
Br4211     Br  0.57853032  0.90488798  0.86276702    -0.01600
Br4212     Br  0.57415029  0.95138482  0.84479147    -0.01600
C4213       C  0.64137607  0.93280317  0.75503759    -0.02700
C4214       C  0.64829602  0.95316901  0.75394108     0.07000
C4215       C  0.65694491  0.96053982  0.73559746    -0.02800
C4216       C  0.65523458  0.94890163  0.71758131    -0.02800
C4217       C  0.64599178  0.92937393  0.71820592     0.07100
C4218       C  0.63924945  0.92117911  0.73703718    -0.03000
Br4219     Br  0.62646572  0.89449467  0.73818935    -0.01600
Br4220     Br  0.63588472  0.92100640  0.78154894    -0.01600
Br4221     Br  0.66507508  0.95983825  0.69183311    -0.01600
Br4222     Br  0.67107301  0.98655060  0.73517144    -0.01600
C4223       C  0.63675076  0.05554004  0.70981924    -0.02700
C4224       C  0.64453886  0.07461801  0.71610288     0.07000
C4225       C  0.65142188  0.07725033  0.73659212    -0.02800
C4226       C  0.64921283  0.06132497  0.75096207    -0.02800
C4227       C  0.64047270  0.04232886  0.74507961     0.07100
C4228       C  0.63449442  0.03952976  0.72404944    -0.03000
Br4229     Br  0.62360796  0.01396630  0.71303421    -0.01600
Br4230     Br  0.63193436  0.05027456  0.68084920    -0.01600
Br4231     Br  0.65984542  0.06572467  0.77818298    -0.01600
Br4232     Br  0.66550919  0.10208022  0.74519851    -0.01600
C4233       C  0.73981105  0.57765038  0.95291197    -0.02700
C4234       C  0.74399448  0.56822056  0.97183774     0.07000
C4235       C  0.73198975  0.55134551  0.97826677    -0.02800
C4236       C  0.71633921  0.54360880  0.96564947    -0.02800
C4237       C  0.71291031  0.55244741  0.94614414     0.07100
C4238       C  0.72350058  0.57053564  0.94080534    -0.03000
Br4239     Br  0.71416712  0.58656721  0.91792915    -0.01600
Br4240     Br  0.75633346  0.60018437  0.94331302    -0.01600
Br4241     Br  0.69973902  0.52114910  0.97579821    -0.01600
Br4242     Br  0.73755391  0.53821749  0.00426756    -0.01600
C4243       C  0.82078909  0.64939966  0.09193683    -0.02700
C4244       C  0.82497894  0.63150227  0.10362326     0.07000
C4245       C  0.82731662  0.61268987  0.09262451    -0.02800
C4246       C  0.82561810  0.61195114  0.07099660    -0.02800
C4247       C  0.81845434  0.62904411  0.05970312     0.07100
C4248       C  0.81716820  0.64814358  0.07032980    -0.03000
Br4249     Br  0.81068272  0.67297947  0.05569319    -0.01600
Br4250     Br  0.82025867  0.67595867  0.10519601    -0.01600
Br4251     Br  0.83484026  0.58743130  0.05682765    -0.01600
Br4252     Br  0.83085889  0.58667315  0.10655513    -0.01600
C4253       C  0.81821110  0.60864833  0.92143884    -0.02700
C4254       C  0.82060089  0.62767885  0.91085788     0.07000
C4255       C  0.81973416  0.64588901  0.92293880    -0.02800
C4256       C  0.81550574  0.64513258  0.94444775    -0.02800
C4257       C  0.81215297  0.62614972  0.95470634     0.07100
C4258       C  0.81456189  0.60792512  0.94298977    -0.03000
Br4259     Br  0.81230698  0.58138296  0.95604133    -0.01600
Br4260     Br  0.81829448  0.58283060  0.90665538    -0.01600
Br4261     Br  0.81544507  0.67047228  0.96006945    -0.01600
Br4262     Br  0.82525293  0.67220181  0.91049682    -0.01600
C4263       C  0.71784450  0.64817001  0.93336284    -0.02700
C4264       C  0.69673185  0.64606205  0.93761507     0.07000
C4265       C  0.68995977  0.64398289  0.95796845    -0.02800
C4266       C  0.70423950  0.64452264  0.97399259    -0.02800
C4267       C  0.72531241  0.64744830  0.96971878     0.07100
C4268       C  0.73198883  0.64980652  0.94941345    -0.03000
Br4269     Br  0.76060997  0.65452845  0.94359340    -0.01600
Br4270     Br  0.72768449  0.64700573  0.90557434    -0.01600
Br4271     Br  0.69485973  0.64103287  0.00189078    -0.01600
Br4272     Br  0.66105308  0.64132430  0.96392257    -0.01600
C4273       C  0.73997977  0.64893041  0.07662344    -0.02700
C4274       C  0.73795239  0.65833195  0.05737661     0.07000
C4275       C  0.71967729  0.66825884  0.05221798    -0.02800
C4276       C  0.70200916  0.66463841  0.06378670    -0.02800
C4277       C  0.70371147  0.65486066  0.08304533     0.07100
C4278       C  0.72291859  0.64757147  0.08967135    -0.03000
Br4279     Br  0.72534052  0.63380575  0.11565840    -0.01600
Br4280     Br  0.76556655  0.63648005  0.08429306    -0.01600
Br4281     Br  0.67585573  0.67166865  0.05185691    -0.01600
Br4282     Br  0.71889346  0.68510782  0.02790433    -0.01600
C4283       C  0.42580701  0.73537671  0.96735001    -0.02700
C4284       C  0.42068932  0.75636601  0.96527988     0.07000
C4285       C  0.42993709  0.76796965  0.94968501    -0.02800
C4286       C  0.44207757  0.75814487  0.93474053    -0.02800
C4287       C  0.44710532  0.73698077  0.93650980     0.07100
C4288       C  0.43889540  0.72570780  0.95306910    -0.03000
Br4289     Br  0.44610086  0.69726808  0.95706930    -0.01600
Br4290     Br  0.41703836  0.72034935  0.99128888    -0.01600
Br4291     Br  0.44989309  0.77387421  0.91100512    -0.01600
Br4292     Br  0.42676182  0.79747953  0.94912494    -0.01600
C4293       C  0.33664258  0.82899171  0.09148604    -0.02700
C4294       C  0.35486036  0.83423180  0.10226456     0.07000
C4295       C  0.37328260  0.83529665  0.09044902    -0.02800
C4296       C  0.37330706  0.83234268  0.06880483    -0.02800
C4297       C  0.35559405  0.82533402  0.05827289     0.07100
C4298       C  0.33702083  0.82439829  0.06997979    -0.03000
Br4299     Br  0.31121865  0.81819121  0.05669694    -0.01600
Br4300     Br  0.31067303  0.82808020  0.10585064    -0.01600
Br4301     Br  0.39801690  0.83920138  0.05392928    -0.01600
Br4302     Br  0.39970996  0.83845224  0.10357120    -0.01600
C4303       C  0.37009082  0.80988434  0.93560623    -0.02700
C4304       C  0.35941676  0.82136243  0.95056576     0.07000
C4305       C  0.34636283  0.83711908  0.94313429    -0.02800
C4306       C  0.34489316  0.84114594  0.92145992    -0.02800
C4307       C  0.35837607  0.83141744  0.90723016     0.07100
C4308       C  0.37189712  0.81663710  0.91521732    -0.03000
Br4309     Br  0.39398964  0.80563379  0.89913245    -0.01600
Br4310     Br  0.37673851  0.78176270  0.94075176    -0.01600
Br4311     Br  0.32497643  0.86034405  0.91140829    -0.01600
Br4312     Br  0.33066707  0.85315765  0.96238412    -0.01600
C4313       C  0.35196909  0.72401897  0.95541276    -0.02700
C4314       C  0.34007336  0.74215379  0.95782551     0.07000
C4315       C  0.32770382  0.74875730  0.94126796    -0.02800
C4316       C  0.32552311  0.73612248  0.92382085    -0.02800
C4317       C  0.33840829  0.71887345  0.92124007     0.07100
C4318       C  0.35297108  0.71428459  0.93632840    -0.03000
Br4319     Br  0.37394471  0.69388480  0.93116831    -0.01600
Br4320     Br  0.36546138  0.71012702  0.97788254    -0.01600
Br4321     Br  0.30294566  0.74121019  0.90534497    -0.01600
Br4322     Br  0.31234917  0.77409238  0.94247805    -0.01600
C4323       C  0.32017096  0.72761866  0.04737899    -0.02700
C4324       C  0.33355897  0.74392730  0.05210973     0.07000
C4325       C  0.34320944  0.74489179  0.07149238    -0.02800
C4326       C  0.34066423  0.72879540  0.08549174    -0.02800
C4327       C  0.32794200  0.71212959  0.08040303     0.07100
C4328       C  0.31701196  0.71194716  0.06174496    -0.03000
Br4329     Br  0.29843220  0.68968828  0.05533784    -0.01600
Br4330     Br  0.30807866  0.72527923  0.02041241    -0.01600
Br4331     Br  0.35435797  0.72963535  0.11170969    -0.01600
Br4332     Br  0.36074879  0.76788881  0.07843654    -0.01600
C4333       C  0.75272911  0.95971482  0.55407478    -0.02700
C4334       C  0.74207534  0.96637321  0.57175647     0.07000
C4335       C  0.72128718  0.96032418  0.57458296    -0.02800
C4336       C  0.71178988  0.94701021  0.56037616    -0.02800
C4337       C  0.72263300  0.94012977  0.54303167     0.07100
C4338       C  0.74299636  0.94678919  0.53976486    -0.03000
Br4339     Br  0.75778386  0.93822013  0.51547916    -0.01600
Br4340     Br  0.78047238  0.96878995  0.54869132    -0.01600
Br4341     Br  0.68456101  0.93663685  0.56558993    -0.01600
Br4342     Br  0.70565854  0.96906871  0.59834058    -0.01600
C4343       C  0.81663932  0.08640056  0.64891072    -0.02700
C4344       C  0.82292153  0.09765291  0.63141888     0.07000
C4345       C  0.82966987  0.08633910  0.61395838    -0.02800
C4346       C  0.82775224  0.06460038  0.61321079    -0.02800
C4347       C  0.81947829  0.05353120  0.63000791     0.07100
C4348       C  0.81619084  0.06459075  0.64858289    -0.03000
Br4349     Br  0.81244075  0.05035848  0.67425488    -0.01600
Br4350     Br  0.80660358  0.10060850  0.67297458    -0.01600
Br4351     Br  0.83857303  0.04975113  0.58986890    -0.01600
Br4352     Br  0.84250076  0.10031479  0.59110344    -0.01600
C4353       C  0.81504869  0.91266879  0.64757176    -0.02700
C4354       C  0.82191925  0.90235481  0.62965267     0.07000
C4355       C  0.82641911  0.91477851  0.61226528    -0.02800
C4356       C  0.82148504  0.93613559  0.61175011    -0.02800
C4357       C  0.81341180  0.94644623  0.62933152     0.07100
C4358       C  0.81134697  0.93428913  0.64763948    -0.03000
Br4359     Br  0.80367127  0.94640538  0.67381782    -0.01600
Br4360     Br  0.81013909  0.89723916  0.67245922    -0.01600
Br4361     Br  0.82573619  0.95058157  0.58621482    -0.01600
Br4362     Br  0.84135945  0.90302466  0.58940926    -0.01600
C4363       C  0.73635391  0.93902779  0.64155968    -0.02700
C4364       C  0.74187045  0.95302885  0.65720387     0.07000
C4365       C  0.73454333  0.94981116  0.67723693    -0.02800
C4366       C  0.71954037  0.93454886  0.68055646    -0.02800
C4367       C  0.71055702  0.92435748  0.66351087     0.07100
C4368       C  0.71892235  0.92690254  0.64392249    -0.03000
Br4369     Br  0.70513784  0.91635277  0.62002356    -0.01600
Br4370     Br  0.75255658  0.93668956  0.61687151    -0.01600
Br4371     Br  0.71072368  0.92872080  0.70816771    -0.01600
Br4372     Br  0.74452891  0.96627939  0.69975509    -0.01600
C4373       C  0.71391739  0.06626676  0.68195048    -0.02700
C4374       C  0.70942959  0.07943238  0.66518642     0.07000
C4375       C  0.72222210  0.07883685  0.64782543    -0.02800
C4376       C  0.74021907  0.06716402  0.64809054    -0.02800
C4377       C  0.74287840  0.05201705  0.66314185     0.07100
C4378       C  0.73009481  0.05204178  0.68044791    -0.03000
Br4379     Br  0.73524471  0.03244415  0.70200066    -0.01600
Br4380     Br  0.69745391  0.06578376  0.70637710    -0.01600
Br4381     Br  0.76188046  0.07336428  0.62901349    -0.01600
Br4382     Br  0.71292828  0.08946012  0.62207584    -0.01600
C4383       C  0.95579189  0.73821892  0.44398452    -0.02700
C4384       C  0.95380674  0.75966008  0.44117827     0.07000
C4385       C  0.93779466  0.77023884  0.45101289    -0.02800
C4386       C  0.92217212  0.75914025  0.46094100    -0.02800
C4387       C  0.92344367  0.73735828  0.46261525     0.07100
C4388       C  0.94060986  0.72708560  0.45449085    -0.03000
Br4389     Br  0.94296224  0.69758434  0.45650236    -0.01600
Br4390     Br  0.98027111  0.72415271  0.43496968    -0.01600
Br4391     Br  0.89928001  0.77460520  0.47202853    -0.01600
Br4392     Br  0.93728553  0.79994770  0.45143585    -0.01600
C4393       C  0.04897522  0.83690048  0.35800379    -0.02700
C4394       C  0.03816988  0.83766403  0.37709467     0.07000
C4395       C  0.04937527  0.84419368  0.39457201    -0.02800
C4396       C  0.07104542  0.84618826  0.39371242    -0.02800
C4397       C  0.08215080  0.84186574  0.37532761     0.07100
C4398       C  0.07069126  0.83864457  0.35719110    -0.03000
Br4399     Br  0.08450823  0.83522609  0.33112472    -0.01600
Br4400     Br  0.03429340  0.83401802  0.33236965    -0.01600
Br4401     Br  0.08522476  0.85569733  0.41807569    -0.01600
Br4402     Br  0.03547937  0.85091289  0.41997163    -0.01600
C4403       C  0.90297682  0.84586578  0.37106698    -0.02700
C4404       C  0.88890927  0.83131241  0.37907942     0.07000
C4405       C  0.89696035  0.81356482  0.38851234    -0.02800
C4406       C  0.91822881  0.81012368  0.38946746    -0.02800
C4407       C  0.93237755  0.82510608  0.38269665     0.07100
C4408       C  0.92453801  0.84313753  0.37355791    -0.03000
Br4409     Br  0.94319180  0.86488294  0.36632177    -0.01600
Br4410     Br  0.89272681  0.87002046  0.35766268    -0.01600
Br4411     Br  0.92761587  0.78388279  0.39910531    -0.01600
Br4412     Br  0.87900606  0.79348421  0.40061078    -0.01600
C4413       C  0.95309290  0.72312239  0.36902348    -0.02700
C4414       C  0.94945946  0.74387932  0.36268542     0.07000
C4415       C  0.92968483  0.74930089  0.35577769    -0.02800
C4416       C  0.91402205  0.73456582  0.35571304    -0.02800
C4417       C  0.91831291  0.71376141  0.35964664     0.07100
C4418       C  0.93767881  0.70817591  0.36692288    -0.03000
Br4419     Br  0.94361307  0.67971233  0.37295973    -0.01600
Br4420     Br  0.97894069  0.71359263  0.38023804    -0.01600
Br4421     Br  0.88631205  0.74348034  0.35165815    -0.01600
Br4422     Br  0.92344618  0.77619331  0.34474682    -0.01600
C4423       C  0.05786624  0.75845286  0.35555758    -0.02700
C4424       C  0.03726148  0.75582129  0.35040599     0.07000
C4425       C  0.03065531  0.73733176  0.34139219    -0.02800
C4426       C  0.04394177  0.72042346  0.34068084    -0.02800
C4427       C  0.06419797  0.72230822  0.34838489     0.07100
C4428       C  0.07116329  0.74168920  0.35513547    -0.03000
Br4429     Br  0.09824788  0.74520646  0.36573073    -0.01600
Br4430     Br  0.06751417  0.78528516  0.36330274    -0.01600
Br4431     Br  0.03360752  0.69516851  0.32911084    -0.01600
Br4432     Br  0.00326281  0.73499941  0.33038880    -0.01600
C4433       C  0.94117557  0.56872191  0.74744734    -0.02700
C4434       C  0.94690990  0.56607752  0.76829569     0.07000
C4435       C  0.94303879  0.54699462  0.77762581    -0.02800
C4436       C  0.93370675  0.53106219  0.76618481    -0.02800
C4437       C  0.92830629  0.53401674  0.74529532     0.07100
C4438       C  0.93363294  0.55233670  0.73565329    -0.03000
Br4439     Br  0.93072246  0.55494509  0.70623555    -0.01600
Br4440     Br  0.94016811  0.59537882  0.73545430    -0.01600
Br4441     Br  0.92958914  0.50459049  0.77877968    -0.01600
Br4442     Br  0.95058361  0.54251791  0.80587350    -0.01600
C4443       C  0.05007683  0.61269584  0.84685809    -0.02700
C4444       C  0.03948842  0.62937272  0.83780821     0.07000
C4445       C  0.05084294  0.64795873  0.83537316    -0.02800
C4446       C  0.07270303  0.64835661  0.83764576    -0.02800
C4447       C  0.08361036  0.63067884  0.84415345     0.07100
C4448       C  0.07161529  0.61345551  0.85023842    -0.03000
Br4449     Br  0.08436997  0.59101275  0.86471201    -0.01600
Br4450     Br  0.03483959  0.58911689  0.85652074    -0.01600
Br4451     Br  0.08758439  0.67297382  0.83050076    -0.01600
Br4452     Br  0.03675640  0.67330018  0.82938922    -0.01600
C4453       C  0.92246111  0.64709058  0.83631871    -0.02700
C4454       C  0.93434700  0.62883452  0.83776916     0.07000
C4455       C  0.92458498  0.61148731  0.84676606    -0.02800
C4456       C  0.90320183  0.61169449  0.85126116    -0.02800
C4457       C  0.89075150  0.62884124  0.84612008     0.07100
C4458       C  0.90086243  0.64677270  0.83914908    -0.03000
Br4459     Br  0.88532376  0.67081684  0.83180081    -0.01600
Br4460     Br  0.93573243  0.67341746  0.83282595    -0.01600
Br4461     Br  0.89127348  0.58844100  0.86544850    -0.01600
Br4462     Br  0.94014819  0.58738852  0.85404192    -0.01600
C4463       C  0.95130114  0.64617531  0.72708478    -0.02700
C4464       C  0.94778640  0.65368388  0.74727842     0.07000
C4465       C  0.93156405  0.66711924  0.75126750    -0.02800
C4466       C  0.91769387  0.67167149  0.73559643    -0.02800
C4467       C  0.91967075  0.66187178  0.71619051     0.07100
C4468       C  0.93703614  0.65000687  0.71165863    -0.03000
Br4469     Br  0.94193651  0.63967978  0.68413105    -0.01600
Br4470     Br  0.97548553  0.63030226  0.72005134    -0.01600
Br4471     Br  0.89579179  0.69078315  0.74156685    -0.01600
Br4472     Br  0.92735881  0.67796199  0.77850357    -0.01600
C4473       C  0.04971824  0.66153161  0.75818951    -0.02700
C4474       C  0.02876209  0.66221646  0.75366312     0.07000
C4475       C  0.02258393  0.66794792  0.73374425    -0.02800
C4476       C  0.03666545  0.66724279  0.71749129    -0.02800
C4477       C  0.05763992  0.66552292  0.72189544     0.07100
C4478       C  0.06399700  0.66545924  0.74263912    -0.03000
Br4479     Br  0.09139077  0.67268224  0.75056884    -0.01600
Br4480     Br  0.05935923  0.65384763  0.78479330    -0.01600
Br4481     Br  0.02727435  0.67004640  0.68957764    -0.01600
Br4482     Br  0.99544917  0.67862425  0.72935063    -0.01600
C4483       C  0.43563750  0.95111863  0.77511362    -0.02700
C4484       C  0.41631118  0.95515963  0.76661302     0.07000
C4485       C  0.41150387  0.94710864  0.74684876    -0.02800
C4486       C  0.42606582  0.93581248  0.73558633    -0.02800
C4487       C  0.44569826  0.93295873  0.74362742     0.07100
C4488       C  0.45053167  0.94088456  0.76333014    -0.03000
Br4489     Br  0.47803668  0.93923095  0.77395265    -0.01600
Br4490     Br  0.44218891  0.96012429  0.80262629    -0.01600
Br4491     Br  0.41911845  0.92390701  0.70926142    -0.01600
Br4492     Br  0.38482950  0.95065645  0.73493505    -0.01600
C4493       C  0.34392830  0.06490810  0.83530062    -0.02700
C4494       C  0.36259558  0.05359972  0.83607228     0.07000
C4495       C  0.38034868  0.06450806  0.84250522    -0.02800
C4496       C  0.37997850  0.08613829  0.84546074    -0.02800
C4497       C  0.36205785  0.09779798  0.84134237     0.07100
C4498       C  0.34390075  0.08676978  0.83665595    -0.03000
Br4499     Br  0.31907954  0.10143630  0.83021255    -0.01600
Br4500     Br  0.31783880  0.05092208  0.83396150    -0.01600
Br4501     Br  0.40432702  0.09947060  0.85608828    -0.01600
Br4502     Br  0.40526527  0.04987826  0.84894673    -0.01600
C4503       C  0.37551364  0.91588170  0.84816811    -0.02700
C4504       C  0.35845835  0.90295275  0.84338086     0.07000
C4505       C  0.33992063  0.91304736  0.83802335    -0.02800
C4506       C  0.33931389  0.93473422  0.83477006    -0.02800
C4507       C  0.35726309  0.94720099  0.83674650     0.07100
C4508       C  0.37464439  0.93759538  0.84556140    -0.03000
Br4509     Br  0.39685212  0.95410009  0.85634852    -0.01600
Br4510     Br  0.40038288  0.90449549  0.85951959    -0.01600
Br4511     Br  0.31301632  0.94705762  0.82888647    -0.01600
Br4512     Br  0.31481991  0.89759204  0.83486788    -0.01600
C4513       C  0.31948765  0.95941616  0.73881006    -0.02700
C4514       C  0.32978197  0.95364584  0.75675080     0.07000
C4515       C  0.33828435  0.93386866  0.75831719    -0.02800
C4516       C  0.33791481  0.92048317  0.74139196    -0.02800
C4517       C  0.32954418  0.92708274  0.72254370     0.07100
C4518       C  0.31999033  0.94651592  0.72151251    -0.03000
Br4519     Br  0.30785031  0.95620604  0.69657748    -0.01600
Br4520     Br  0.30658995  0.98606954  0.73726225    -0.01600
Br4521     Br  0.35074288  0.89392024  0.74375077    -0.01600
Br4522     Br  0.35291633  0.92630010  0.78289995    -0.01600
C4523       C  0.32451692  0.06285830  0.75797935    -0.02700
C4524       C  0.33804774  0.04666879  0.75307207     0.07000
C4525       C  0.35063377  0.04833474  0.73516299    -0.02800
C4526       C  0.35069578  0.06643802  0.72373752    -0.02800
C4527       C  0.33549405  0.08117826  0.72711780     0.07100
C4528       C  0.32259807  0.07967717  0.74458126    -0.03000
Br4529     Br  0.30096633  0.09937987  0.74955446    -0.01600
Br4530     Br  0.30649594  0.06102750  0.78140428    -0.01600
Br4531     Br  0.37193095  0.07126968  0.70339190    -0.01600
Br4532     Br  0.36676425  0.02596662  0.72389028    -0.01600
C4533       C  0.72313223  0.43543684  0.96630329    -0.02700
C4534       C  0.74448069  0.43296937  0.96225381     0.07000
C4535       C  0.75525170  0.44877149  0.95234935    -0.02800
C4536       C  0.74510614  0.46692572  0.94686386    -0.02800
C4537       C  0.72339061  0.46818217  0.94841943     0.07100
C4538       C  0.71274047  0.45291052  0.95924209    -0.03000
Br4539     Br  0.68442026  0.45730970  0.96695392    -0.01600
Br4540     Br  0.70771696  0.41614640  0.98287096    -0.01600
Br4541     Br  0.76184953  0.49039312  0.93990711    -0.01600
Br4542     Br  0.78385103  0.44525422  0.94536266    -0.01600
C4543       C  0.81867680  0.39093347  0.06840836    -0.02700
C4544       C  0.81273846  0.37286165  0.05767980     0.07000
C4545       C  0.81322252  0.35419747  0.06902436    -0.02800
C4546       C  0.81568791  0.35406833  0.09081364    -0.02800
C4547       C  0.82077256  0.37226687  0.10176138     0.07100
C4548       C  0.82354030  0.39043708  0.08977500    -0.03000
Br4549     Br  0.83510098  0.41499322  0.10200585    -0.01600
Br4550     Br  0.81959384  0.41703266  0.05441067    -0.01600
Br4551     Br  0.81033484  0.32887845  0.10542593    -0.01600
Br4552     Br  0.81261051  0.32828318  0.05451579    -0.01600
C4553       C  0.82832544  0.36104708  0.94582079    -0.02700
C4554       C  0.80771763  0.36416686  0.95154863     0.07000
C4555       C  0.79270622  0.36445108  0.93587465    -0.02800
C4556       C  0.79797726  0.36118848  0.91511450    -0.02800
C4557       C  0.81867103  0.35950437  0.90920307     0.07100
C4558       C  0.83379787  0.35892151  0.92476378    -0.03000
Br4559     Br  0.86198243  0.35482057  0.91724273    -0.01600
Br4560     Br  0.84911351  0.36142592  0.96674409    -0.01600
Br4561     Br  0.77661859  0.36074473  0.89454854    -0.01600
Br4562     Br  0.76500855  0.37206538  0.94191143    -0.01600
C4563       C  0.72953102  0.33181590  0.94936065    -0.02700
C4564       C  0.72284729  0.34020613  0.96815287     0.07000
C4565       C  0.70154885  0.34227685  0.97155672    -0.02800
C4566       C  0.68787435  0.34166452  0.95496277    -0.02800
C4567       C  0.69529037  0.33727430  0.93512289     0.07100
C4568       C  0.71592029  0.33100295  0.93266299    -0.03000
Br4569     Br  0.72610558  0.32205784  0.90635659    -0.01600
Br4570     Br  0.75628456  0.31940410  0.94693212    -0.01600
Br4571     Br  0.65894629  0.34578316  0.95972876    -0.01600
Br4572     Br  0.69093657  0.34306569  0.99923228    -0.01600
C4573       C  0.70647370  0.37066464  0.05364902    -0.02700
C4574       C  0.72602027  0.36125164  0.05300177     0.07000
C4575       C  0.73322616  0.34988898  0.06967623    -0.02800
C4576       C  0.72083552  0.34772660  0.08697689    -0.02800
C4577       C  0.70061060  0.35527362  0.08676130     0.07100
C4578       C  0.69366164  0.36746017  0.07045041    -0.03000
Br4579     Br  0.66616455  0.37863629  0.06991954    -0.01600
Br4580     Br  0.69625197  0.38722066  0.03121414    -0.01600
Br4581     Br  0.73213316  0.33532482  0.11121862    -0.01600
Br4582     Br  0.75997992  0.33745321  0.06914934    -0.01600
C4583       C  0.54798364  0.76798957  0.94754643    -0.02700
C4584       C  0.56210633  0.75610651  0.95859913     0.07000
C4585       C  0.56239928  0.73437633  0.95605677    -0.02800
C4586       C  0.54819116  0.72480530  0.94300948    -0.02800
C4587       C  0.53362015  0.73668938  0.93277825     0.07100
C4588       C  0.53365124  0.75832780  0.93483542    -0.03000
Br4589     Br  0.51378877  0.77515541  0.92061613    -0.01600
Br4590     Br  0.54861313  0.79765511  0.94891100    -0.01600
Br4591     Br  0.54927656  0.69553853  0.93830118    -0.01600
Br4592     Br  0.58137126  0.71695343  0.97072139    -0.01600
C4593       C  0.62886709  0.83134495  0.06998863    -0.02700
C4594       C  0.60986528  0.82891450  0.05954456     0.07000
C4595       C  0.59175900  0.83216362  0.07113534    -0.02800
C4596       C  0.59246214  0.83451301  0.09285938    -0.02800
C4597       C  0.61151110  0.83503677  0.10360962     0.07100
C4598       C  0.62969413  0.83408700  0.09163586    -0.03000
Br4599     Br  0.65624576  0.83707570  0.10439974    -0.01600
Br4600     Br  0.65426503  0.83256566  0.05454671    -0.01600
Br4601     Br  0.56657661  0.83544139  0.10748859    -0.01600
Br4602     Br  0.56567091  0.83431982  0.05751984    -0.01600
C4603       C  0.59818251  0.83809495  0.94327372    -0.02700
C4604       C  0.61448743  0.82864647  0.95388665     0.07000
C4605       C  0.63306423  0.82564677  0.94278832    -0.02800
C4606       C  0.63459125  0.83048572  0.92146817    -0.02800
C4607       C  0.61714975  0.83680321  0.90999979     0.07100
C4608       C  0.59897167  0.84120605  0.92166470    -0.03000
Br4609     Br  0.57412036  0.85140641  0.90910390    -0.01600
Br4610     Br  0.57500946  0.84846908  0.95878048    -0.01600
Br4611     Br  0.66137321  0.82951824  0.90882717    -0.01600
Br4612     Br  0.65683536  0.81429393  0.95616548    -0.01600
C4613       C  0.63310385  0.74773968  0.94552343    -0.02700
C4614       C  0.64505690  0.74787703  0.96349594     0.07000
C4615       C  0.65970989  0.73252279  0.96666005    -0.02800
C4616       C  0.66132266  0.71616836  0.95271243    -0.02800
C4617       C  0.64730052  0.71449853  0.93629442     0.07100
C4618       C  0.63333468  0.73045035  0.93261684    -0.03000
Br4619     Br  0.61352030  0.72783553  0.91082514    -0.01600
Br4620     Br  0.61670077  0.77117975  0.93832558    -0.01600
Br4621     Br  0.68319011  0.69679784  0.95612550    -0.01600
Br4622     Br  0.67774109  0.73434798  0.99005188    -0.01600
C4623       C  0.65568038  0.74371476  0.05906044    -0.02700
C4624       C  0.63542162  0.75070775  0.05792102     0.07000
C4625       C  0.62104766  0.74404352  0.07275174    -0.02800
C4626       C  0.62504996  0.72651556  0.08449431    -0.02800
C4627       C  0.64411365  0.71658847  0.08245450     0.07100
C4628       C  0.66025678  0.72697302  0.07173449    -0.03000
Br4629     Br  0.68895696  0.71958182  0.07400347    -0.01600
Br4630     Br  0.67723736  0.75668221  0.04325519    -0.01600
Br4631     Br  0.60487433  0.71729900  0.10420841    -0.01600
Br4632     Br  0.59621676  0.75947850  0.07737358    -0.01600
C4633       C  0.74891153  0.42798040  0.06287448    -0.02700
C4634       C  0.74992377  0.43634281  0.04306522     0.07000
C4635       C  0.73697510  0.45290211  0.03787456    -0.02800
C4636       C  0.72310078  0.46103640  0.05237482    -0.02800
C4637       C  0.72211573  0.45269812  0.07248238     0.07100
C4638       C  0.73471955  0.43566185  0.07716254    -0.03000
Br4639     Br  0.73158231  0.42107581  0.10245698    -0.01600
Br4640     Br  0.76582987  0.40480797  0.07027552    -0.01600
Br4641     Br  0.70570685  0.48345941  0.04378714    -0.01600
Br4642     Br  0.73831279  0.46466643  0.01062093    -0.01600
C4643       C  0.71599263  0.55052994  0.06356419    -0.02700
C4644       C  0.72678305  0.53653187  0.07591913     0.07000
C4645       C  0.74861165  0.53821726  0.07721270    -0.02800
C4646       C  0.75904641  0.55404242  0.06690230    -0.02800
C4647       C  0.74815252  0.56811182  0.05502882     0.07100
C4648       C  0.72654624  0.56635017  0.05336105    -0.03000
Br4649     Br  0.71097679  0.58467716  0.03601764    -0.01600
Br4650     Br  0.68703233  0.54703520  0.05852115    -0.01600
Br4651     Br  0.78839024  0.55702067  0.06961014    -0.01600
Br4652     Br  0.76538143  0.51922091  0.09261750    -0.01600
C4653       C  0.64428526  0.43590543  0.12485969    -0.02700
C4654       C  0.65514283  0.44698244  0.14014835     0.07000
C4655       C  0.65907986  0.43640223  0.15884730    -0.02800
C4656       C  0.65521304  0.41481275  0.16075515    -0.02800
C4657       C  0.64763849  0.40299351  0.14397935     0.07100
C4658       C  0.64051603  0.41443077  0.12664951    -0.03000
Br4659     Br  0.62442949  0.40178151  0.10500596    -0.01600
Br4660     Br  0.63312001  0.45051527  0.10158077    -0.01600
Br4661     Br  0.65893093  0.40201861  0.18715102    -0.01600
Br4662     Br  0.67034471  0.45090411  0.18212866    -0.01600
C4663       C  0.66174935  0.56439110  0.15349991    -0.02700
C4664       C  0.65970317  0.55226097  0.13533892     0.07000
C4665       C  0.65019926  0.56191676  0.11827476    -0.02800
C4666       C  0.64465465  0.58312365  0.11893037    -0.02800
C4667       C  0.64981449  0.59591981  0.13599598     0.07100
C4668       C  0.65800680  0.58594972  0.15346959    -0.03000
Br4669     Br  0.66549016  0.60160856  0.17746223    -0.01600
Br4670     Br  0.66840590  0.55155467  0.17938303    -0.01600
Br4671     Br  0.62862189  0.59406635  0.09653495    -0.01600
Br4672     Br  0.64447918  0.54657585  0.09351737    -0.01600
C4673       C  0.74345283  0.55900652  0.15191364    -0.02700
C4674       C  0.74904419  0.53819878  0.15293620     0.07000
C4675       C  0.77003475  0.53289927  0.15409661    -0.02800
C4676       C  0.78506162  0.54831606  0.15561103    -0.02800
C4677       C  0.77927276  0.56902346  0.15487161     0.07100
C4678       C  0.75856428  0.57432599  0.15269802    -0.03000
Br4679     Br  0.75105279  0.60265931  0.15011008    -0.01600
Br4680     Br  0.71527554  0.56661719  0.14800741    -0.01600
Br4681     Br  0.81358538  0.54124286  0.15901283    -0.01600
Br4682     Br  0.77856241  0.50465608  0.15234192    -0.01600
C4683       C  0.73313755  0.43032996  0.15840609    -0.02700
C4684       C  0.73526883  0.45031245  0.16620662     0.07000
C4685       C  0.75262705  0.45574040  0.17746796    -0.02800
C4686       C  0.76981010  0.44298906  0.17713429    -0.02800
C4687       C  0.76875741  0.42373642  0.16699009     0.07100
C4688       C  0.75001002  0.41702902  0.15846214    -0.03000
Br4689     Br  0.74790560  0.39047993  0.14520512    -0.01600
Br4690     Br  0.70712404  0.42144440  0.14783027    -0.01600
Br4691     Br  0.79441176  0.45275332  0.19022416    -0.01600
Br4692     Br  0.75228595  0.48109963  0.19293114    -0.01600
C4693       C  0.41015075  0.06227662  0.75879436    -0.02700
C4694       C  0.41621304  0.04217352  0.76410052     0.07000
C4695       C  0.43521233  0.03468562  0.75685904    -0.02800
C4696       C  0.44825429  0.04732471  0.74504691    -0.02800
C4697       C  0.44212708  0.06739494  0.73955158     0.07100
C4698       C  0.42280026  0.07461311  0.74622861    -0.03000
Br4699     Br  0.41310265  0.10108596  0.73727214    -0.01600
Br4700     Br  0.38478550  0.07329614  0.76945125    -0.01600
Br4701     Br  0.47493540  0.03701886  0.73738911    -0.01600
Br4702     Br  0.44317166  0.00661846  0.76193426    -0.01600
C4703       C  0.53447069  0.06584063  0.75865040    -0.02700
C4704       C  0.52997143  0.06320127  0.73737301     0.07000
C4705       C  0.54037391  0.04788945  0.72614187    -0.02800
C4706       C  0.55558661  0.03598032  0.73572261    -0.02800
C4707       C  0.56014137  0.03884714  0.75682261     0.07100
C4708       C  0.54919234  0.05349382  0.76824554    -0.03000
Br4709     Br  0.55439924  0.05686945  0.79727314    -0.01600
Br4710     Br  0.52130976  0.08666431  0.77545518    -0.01600
Br4711     Br  0.56863550  0.01442021  0.72006833    -0.01600
Br4712     Br  0.53236346  0.04149007  0.69829248    -0.01600
C4713       C  0.40184509  0.11130078  0.65879124    -0.02700
C4714       C  0.39101111  0.12898297  0.66544027     0.07000
C4715       C  0.40263569  0.14590060  0.67259159    -0.02800
C4716       C  0.42431679  0.14447261  0.67467764    -0.02800
C4717       C  0.43474628  0.12548793  0.67124858     0.07100
C4718       C  0.42321932  0.10928331  0.66218694    -0.03000
Br4719     Br  0.43644298  0.08419403  0.65341454    -0.01600
Br4720     Br  0.38753902  0.08995580  0.64377209    -0.01600
Br4721     Br  0.43911653  0.16915202  0.68198831    -0.01600
Br4722     Br  0.38889422  0.17085301  0.68079603    -0.01600
C4723       C  0.55119841  0.14464197  0.66880474    -0.02700
C4724       C  0.54100334  0.12522543  0.66939874     0.07000
C4725       C  0.55288175  0.10783840  0.66379082    -0.02800
C4726       C  0.57462724  0.10927195  0.66142066    -0.02800
C4727       C  0.58520987  0.12846083  0.66345067     0.07100
C4728       C  0.57279560  0.14620485  0.66569216    -0.03000
Br4729     Br  0.58490263  0.17317525  0.66284203    -0.01600
Br4730     Br  0.53559419  0.16982716  0.67069741    -0.01600
Br4731     Br  0.58936068  0.08412254  0.65581619    -0.01600
Br4732     Br  0.53957238  0.08185740  0.65824460    -0.01600
C4733       C  0.53903136  0.16684522  0.75589265    -0.02700
C4734       C  0.53906807  0.14647598  0.74836474     0.07000
C4735       C  0.55408380  0.13266994  0.75539027    -0.02800
C4736       C  0.56490944  0.13706282  0.77328919    -0.02800
C4737       C  0.56389616  0.15676608  0.78180852     0.07100
C4738       C  0.55151040  0.17196173  0.77270819    -0.03000
Br4739     Br  0.54984375  0.19918545  0.78435870    -0.01600
Br4740     Br  0.52251487  0.18797708  0.74337071    -0.01600
Br4741     Br  0.57866548  0.11527775  0.78753205    -0.01600
Br4742     Br  0.56081844  0.10833981  0.73983732    -0.01600
C4743       C  0.43422398  0.16580033  0.75421199    -0.02700
C4744       C  0.44634952  0.14815554  0.75684729     0.07000
C4745       C  0.44179315  0.13430425  0.77308551    -0.02800
C4746       C  0.42401592  0.13687657  0.78464510    -0.02800
C4747       C  0.41283754  0.15503547  0.78301790     0.07100
C4748       C  0.41745503  0.16932197  0.76735246    -0.03000
Br4749     Br  0.40158153  0.19412008  0.76416369    -0.01600
Br4750     Br  0.44273236  0.18695081  0.73531467    -0.01600
Br4751     Br  0.41418213  0.11484541  0.80190983    -0.01600
Br4752     Br  0.46033779  0.11309242  0.78230019    -0.01600
C4753       C  0.06909982  0.76473380  0.45209694    -0.02700
C4754       C  0.06188896  0.75416343  0.46951676     0.07000
C4755       C  0.04124911  0.75603905  0.47545955    -0.02800
C4756       C  0.02773514  0.76763736  0.46338244    -0.02800
C4757       C  0.03485442  0.77736515  0.44534242     0.07100
C4758       C  0.05570860  0.77663552  0.44029250    -0.03000
Br4759     Br  0.06566973  0.79140018  0.41673519    -0.01600
Br4760     Br  0.09700420  0.76195524  0.44352947    -0.01600
Br4761     Br  0.99952361  0.77053475  0.47172156    -0.01600
Br4762     Br  0.03151634  0.74241384  0.49991792    -0.01600
C4763       C  0.06767064  0.77499371  0.55285156    -0.02700
C4764       C  0.07157934  0.75372498  0.55397163     0.07000
C4765       C  0.06176052  0.74171538  0.56878201    -0.02800
C4766       C  0.04655280  0.75029472  0.58120761    -0.02800
C4767       C  0.04073984  0.77119087  0.57854138     0.07100
C4768       C  0.05198389  0.78368242  0.56486480    -0.03000
Br4769     Br  0.04460829  0.81193869  0.56035531    -0.01600
Br4770     Br  0.08254812  0.79205741  0.53365856    -0.01600
Br4771     Br  0.03371856  0.73224981  0.60110729    -0.01600
Br4772     Br  0.06905942  0.71326988  0.57199328    -0.01600
C4773       C  0.12912443  0.66837361  0.44317120    -0.02700
C4774       C  0.11209700  0.67838397  0.45246835     0.07000
C4775       C  0.09540579  0.68327693  0.43949360    -0.02800
C4776       C  0.09673434  0.68072981  0.41784510    -0.02800
C4777       C  0.11361809  0.67048628  0.40841401     0.07100
C4778       C  0.12974550  0.66415225  0.42159892    -0.03000
Br4779     Br  0.15304568  0.64967123  0.41050021    -0.01600
Br4780     Br  0.15147598  0.65939314  0.46027375    -0.01600
Br4781     Br  0.07612781  0.69420213  0.40133934    -0.01600
Br4782     Br  0.07009100  0.69354021  0.45080181    -0.01600
C4783       C  0.13210704  0.67584079  0.57043505    -0.02700
C4784       C  0.11376885  0.67513734  0.55872582     0.07000
C4785       C  0.09583161  0.66814156  0.56894346    -0.02800
C4786       C  0.09544951  0.66510087  0.59059016    -0.02800
C4787       C  0.11319121  0.66845106  0.60279521     0.07100
C4788       C  0.13177531  0.67279783  0.59213246    -0.03000
Br4789     Br  0.15713513  0.67561153  0.60696361    -0.01600
Br4790     Br  0.15811384  0.68103236  0.55715589    -0.01600
Br4791     Br  0.07039251  0.65530201  0.60311729    -0.01600
Br4792     Br  0.07172644  0.66141554  0.55304183    -0.01600
C4793       C  0.16718799  0.76704583  0.55239781    -0.02700
C4794       C  0.15197262  0.75194103  0.55368530     0.07000
C4795       C  0.13680001  0.75365779  0.56888130    -0.02800
C4796       C  0.13413174  0.77230388  0.57950978    -0.02800
C4797       C  0.14827995  0.78847347  0.57692954     0.07100
C4798       C  0.16548536  0.78522287  0.56396934    -0.03000
Br4799     Br  0.18727579  0.80485202  0.56191768    -0.01600
Br4800     Br  0.19108970  0.76153807  0.53579747    -0.01600
Br4801     Br  0.11062459  0.77608955  0.59693094    -0.01600
Br4802     Br  0.12090387  0.72987220  0.57598016    -0.01600
C4803       C  0.14827899  0.74912008  0.44041876    -0.02700
C4804       C  0.15297936  0.75445151  0.46071780     0.07000
C4805       C  0.15794102  0.77490745  0.46546282    -0.02800
C4806       C  0.15519444  0.79045963  0.45091785    -0.02800
C4807       C  0.14845227  0.78550753  0.43085860     0.07100
C4808       C  0.14559624  0.76456362  0.42564001    -0.03000
Br4809     Br  0.13447528  0.75687578  0.39957667    -0.01600
Br4810     Br  0.14295722  0.72073486  0.43376510    -0.01600
Br4811     Br  0.15998324  0.81832068  0.45967996    -0.01600
Br4812     Br  0.16616404  0.78194860  0.49295750    -0.01600
C4813       C  0.55576542  0.73518091  0.04946628    -0.02700
C4814       C  0.55318413  0.75645765  0.04491369     0.07000
C4815       C  0.53829602  0.76781714  0.05570265    -0.02800
C4816       C  0.52758489  0.75877615  0.07200559    -0.02800
C4817       C  0.52971315  0.73754906  0.07599584     0.07100
C4818       C  0.54365912  0.72578400  0.06467089    -0.03000
Br4819     Br  0.54727408  0.69712663  0.07134133    -0.01600
Br4820     Br  0.57623062  0.71832823  0.03601993    -0.01600
Br4821     Br  0.51026597  0.77606883  0.08887580    -0.01600
Br4822     Br  0.53050459  0.79497202  0.04692468    -0.01600
C4823       C  0.41575059  0.73785167  0.05466042    -0.02700
C4824       C  0.41628236  0.75951741  0.05179210     0.07000
C4825       C  0.42988015  0.77120041  0.06382425    -0.02800
C4826       C  0.44214686  0.76148164  0.07861413    -0.02800
C4827       C  0.44424185  0.73970413  0.07863955     0.07100
C4828       C  0.43111024  0.72804819  0.06603456    -0.03000
Br4829     Br  0.43545247  0.69909680  0.06159722    -0.01600
Br4830     Br  0.39373065  0.72093013  0.04404719    -0.01600
Br4831     Br  0.45499130  0.77873993  0.09908422    -0.01600
Br4832     Br  0.43390140  0.80005676  0.05886813    -0.01600
C4833       C  0.42123507  0.67398735  0.15802159    -0.02700
C4834       C  0.43260039  0.67344451  0.13931651     0.07000
C4835       C  0.42207959  0.66607036  0.12171557    -0.02800
C4836       C  0.40039908  0.66321903  0.12182737    -0.02800
C4837       C  0.38856620  0.66548731  0.14025307     0.07100
C4838       C  0.39973510  0.66982304  0.15853757    -0.03000
Br4839     Br  0.38623008  0.66908596  0.18497946    -0.01600
Br4840     Br  0.43529169  0.67872776  0.18374167    -0.01600
Br4841     Br  0.38760316  0.65714375  0.09566379    -0.01600
Br4842     Br  0.43721640  0.65824043  0.09738059    -0.01600
C4843       C  0.57180971  0.67198346  0.15618016    -0.02700
C4844       C  0.58235004  0.66322632  0.13898756     0.07000
C4845       C  0.56965284  0.65599423  0.12247011    -0.02800
C4846       C  0.54810369  0.65942755  0.12232637    -0.02800
C4847       C  0.53819146  0.67037320  0.13827616     0.07100
C4848       C  0.55009356  0.67509611  0.15593938    -0.03000
Br4849     Br  0.53682444  0.68515989  0.18052755    -0.01600
Br4850     Br  0.58653072  0.68009406  0.18061331    -0.01600
Br4851     Br  0.53155865  0.64732263  0.10075322    -0.01600
Br4852     Br  0.58066300  0.64075551  0.09933041    -0.01600
C4853       C  0.53125160  0.76425468  0.18130590    -0.02700
C4854       C  0.53516704  0.75106277  0.16478039     0.07000
C4855       C  0.55209825  0.75457315  0.15185512    -0.02800
C4856       C  0.56366802  0.77265718  0.15399554    -0.02800
C4857       C  0.55784583  0.78737920  0.16881119     0.07100
C4858       C  0.54181764  0.78293395  0.18277910    -0.03000
Br4859     Br  0.53276675  0.80305932  0.20262694    -0.01600
Br4860     Br  0.51081575  0.75656329  0.20135397    -0.01600
Br4861     Br  0.58755525  0.77695468  0.13692853    -0.01600
Br4862     Br  0.55909683  0.73464133  0.13113553    -0.01600
C4863       C  0.42556182  0.75622250  0.15451619    -0.02700
C4864       C  0.44606442  0.76045776  0.15965181     0.07000
C4865       C  0.45241381  0.78093701  0.16296029    -0.02800
C4866       C  0.43837804  0.79699749  0.16093143    -0.02800
C4867       C  0.41803210  0.79265174  0.15555165     0.07100
C4868       C  0.41168256  0.77235060  0.15199460    -0.03000
Br4869     Br  0.38416221  0.76685819  0.14291095    -0.01600
Br4870     Br  0.41694720  0.72829589  0.14964037    -0.01600
Br4871     Br  0.44689000  0.82515049  0.16515412    -0.01600
Br4872     Br  0.48059520  0.78734761  0.16879259    -0.01600
C4873       C  0.05085387  0.57762983  0.76177163    -0.02700
C4874       C  0.03090321  0.57133395  0.76702039     0.07000
C4875       C  0.02251873  0.55342836  0.75808949    -0.02800
C4876       C  0.03373585  0.54235878  0.74341516    -0.02800
C4877       C  0.05392751  0.54850865  0.73851754     0.07100
C4878       C  0.06215039  0.56657302  0.74720508    -0.03000
Br4879     Br  0.08866657  0.57659677  0.73854320    -0.01600
Br4880     Br  0.06314837  0.60072191  0.77559056    -0.01600
Br4881     Br  0.02101869  0.51870330  0.73049528    -0.01600
Br4882     Br  0.99577818  0.54349372  0.76584510    -0.01600
C4883       C  0.04804405  0.44067597  0.73740249    -0.02700
C4884       C  0.05041551  0.46076208  0.74533914     0.07000
C4885       C  0.04504218  0.46430012  0.76652547    -0.02800
C4886       C  0.03582212  0.44859304  0.77833485    -0.02800
C4887       C  0.03350036  0.42884032  0.77003490     0.07100
C4888       C  0.04165365  0.42474264  0.75041133    -0.03000
Br4889     Br  0.04586445  0.39681293  0.74212105    -0.01600
Br4890     Br  0.05256022  0.43415295  0.70872125    -0.01600
Br4891     Br  0.02538325  0.45447745  0.80551453    -0.01600
Br4892     Br  0.04928661  0.49035559  0.78049815    -0.01600
C4893       C  0.12664800  0.41263006  0.67682824    -0.02700
C4894       C  0.10990587  0.40269161  0.66727869     0.07000
C4895       C  0.09396906  0.41513564  0.65949896    -0.02800
C4896       C  0.09400958  0.43683127  0.66252094    -0.02800
C4897       C  0.10996465  0.44678709  0.67377363     0.07100
C4898       C  0.12690293  0.43427434  0.67982433    -0.03000
Br4899     Br  0.15119948  0.44584138  0.69244215    -0.01600
Br4900     Br  0.14906558  0.39640425  0.68723157    -0.01600
Br4901     Br  0.07232121  0.45255510  0.64998554    -0.01600
Br4902     Br  0.07227209  0.40247064  0.64370634    -0.01600
C4903       C  0.09067092  0.59167359  0.67562299    -0.02700
C4904       C  0.10910362  0.60094033  0.66860399     0.07000
C4905       C  0.12529909  0.58744675  0.66309745    -0.02800
C4906       C  0.12372109  0.56566323  0.66608936    -0.02800
C4907       C  0.10546722  0.55635949  0.67388062     0.07100
C4908       C  0.08857005  0.56992217  0.67737230    -0.03000
Br4909     Br  0.06165765  0.55960010  0.68439489    -0.01600
Br4910     Br  0.06812197  0.60878640  0.68449753    -0.01600
Br4911     Br  0.14648944  0.54861869  0.65797439    -0.01600
Br4912     Br  0.14935000  0.59869356  0.64995619    -0.01600
C4913       C  0.11873802  0.54736109  0.77575973    -0.02700
C4914       C  0.13154194  0.54477022  0.75817141     0.07000
C4915       C  0.14745202  0.55890664  0.75427414    -0.02800
C4916       C  0.15140843  0.57467710  0.76848663    -0.02800
C4917       C  0.13838549  0.57728453  0.78574992     0.07100
C4918       C  0.12141658  0.56436177  0.78856500    -0.03000
Br4919     Br  0.10134074  0.57020162  0.80979364    -0.01600
Br4920     Br  0.09770718  0.52780196  0.78386788    -0.01600
Br4921     Br  0.17592699  0.59111449  0.76494537    -0.01600
Br4922     Br  0.16522539  0.55571040  0.73064617    -0.01600
C4923       C  0.14489815  0.46194383  0.77171602    -0.02700
C4924       C  0.12960893  0.45569643  0.75770745    -0.02600
C4925       C  0.11683769  0.43895464  0.76286934    -0.02800
C4926       C  0.11754498  0.43024924  0.78252819    -0.02800
C4927       C  0.13352250  0.43540895  0.79595751     0.07100
C4928       C  0.14698191  0.45164139  0.79060977    -0.03000
Br4929     Br  0.16696108  0.46123471  0.81022436    -0.01600
Br4930     Br  0.16252188  0.48506437  0.76573767    -0.01600
Br4931     Br  0.09517438  0.41344325  0.79175223    -0.01600
Br4932     Br  0.09837532  0.42783677  0.74265749    -0.01600
C4933       C  0.75747837  0.06440499  0.56914395    -0.02700
C4934       C  0.74554482  0.05050726  0.58046641     0.07000
C4935       C  0.72387259  0.05189979  0.58010647    -0.02800
C4936       C  0.71428375  0.06721122  0.56856341    -0.02800
C4937       C  0.72610246  0.08033927  0.55626930     0.07100
C4938       C  0.74789626  0.07931730  0.55701843    -0.03000
Br4939     Br  0.76537232  0.09758427  0.54123300    -0.01600
Br4940     Br  0.78700914  0.06324215  0.57043455    -0.01600
Br4941     Br  0.68503049  0.07113067  0.57068300    -0.01600
Br4942     Br  0.70682193  0.03202941  0.59413017    -0.01600
C4943       C  0.74631872  0.06538760  0.43684961    -0.02700
C4944       C  0.75910329  0.04935708  0.44361226     0.07000
C4945       C  0.75954119  0.04461795  0.46475000    -0.02800
C4946       C  0.74444699  0.05268639  0.47796401    -0.02800
C4947       C  0.73032112  0.06743861  0.47075421     0.07100
C4948       C  0.73180545  0.07421714  0.45020066    -0.03000
Br4949     Br  0.71466087  0.09597129  0.43999473    -0.01600
Br4950     Br  0.74984339  0.07619056  0.40945152    -0.01600
Br4951     Br  0.74242950  0.04243870  0.50579901    -0.01600
Br4952     Br  0.78133307  0.02825263  0.47622756    -0.01600
C4953       C  0.65785587  0.10695642  0.43800757    -0.02700
C4954       C  0.65999697  0.12548426  0.44940559     0.07000
C4955       C  0.65596188  0.14405884  0.43871977    -0.02800
C4956       C  0.65282502  0.14435788  0.41700529    -0.02800
C4957       C  0.65136585  0.12585614  0.40540379     0.07100
C4958       C  0.65286100  0.10715863  0.41669205    -0.03000
Br4959     Br  0.64847949  0.08101678  0.40344277    -0.01600
Br4960     Br  0.66243619  0.08066458  0.45096274    -0.01600
Br4961     Br  0.64989374  0.17058563  0.40362427    -0.01600
Br4962     Br  0.65252133  0.16922905  0.45412833    -0.01600
C4963       C  0.64552785  0.11629079  0.58755997    -0.02700
C4964       C  0.65177111  0.13317574  0.59986877     0.07000
C4965       C  0.65747353  0.15151045  0.58943473    -0.02800
C4966       C  0.65927072  0.15198481  0.56752025    -0.02800
C4967       C  0.65632602  0.13389500  0.55559569     0.07100
C4968       C  0.64728469  0.11685360  0.56582411    -0.03000
Br4969     Br  0.63533474  0.09468570  0.54995870    -0.01600
Br4970     Br  0.63346764  0.09232017  0.60024895    -0.01600
Br4971     Br  0.66462695  0.17782707  0.55405713    -0.01600
Br4972     Br  0.66405340  0.17592231  0.60499010    -0.01600
C4973       C  0.76505421  0.16798516  0.53756690    -0.02700
C4974       C  0.74447956  0.16347162  0.54271425     0.07000
C4975       C  0.73844241  0.16428674  0.56341728    -0.02800
C4976       C  0.75288887  0.16882740  0.57862324    -0.02800
C4977       C  0.77417182  0.16782787  0.57399565     0.07100
C4978       C  0.78007788  0.16901996  0.55304228    -0.03000
Br4979     Br  0.80811824  0.17383240  0.54488821    -0.01600
Br4980     Br  0.77257203  0.17300994  0.50921619    -0.01600
Br4981     Br  0.74233010  0.17920145  0.60442823    -0.01600
Br4982     Br  0.71126651  0.15662279  0.57195044    -0.01600
C4983       C  0.78056799  0.13730427  0.44338110    -0.02700
C4984       C  0.77558381  0.14975094  0.42654547     0.07000
C4985       C  0.75527795  0.15732847  0.42436053    -0.02800
C4986       C  0.74063986  0.15380699  0.43972287    -0.02800
C4987       C  0.74612758  0.14266277  0.45715721     0.07100
C4988       C  0.76600522  0.13392300  0.45875551    -0.03000
Br4989     Br  0.77428949  0.11779478  0.48239072    -0.01600
Br4990     Br  0.80761800  0.12566566  0.44654371    -0.01600
Br4991     Br  0.71280564  0.16334222  0.43640655    -0.01600
Br4992     Br  0.74660391  0.17206613  0.40025110    -0.01600
loop_ 
_geom_bond_atom_site_label_1 
_geom_bond_atom_site_label_2 
_geom_bond_distance 
_geom_bond_site_symmetry_2 
_ccdc_geom_bond_type 
O1          Cr19   2.056       .  S
O1            C9   1.280       .  A
O2          Cr19   2.007       .  S
O2            C3   1.257       .  A
C3            O4   1.244       .  A
C3         C4974   1.478       .  S
O4          Cr20   1.965       .  S
O5          Cr20   1.938       .  S
O5            C6   1.253       .  A
C6            O7   1.287       .  A
C6         C4937   1.473       .  S
O7          Cr21   2.061       .  S
O8          Cr21   1.974       .  S
O8            C9   1.262       .  A
C9         C4967   1.534       .  S
O10         Cr19   1.999       .  S
O10          C18   1.263       .  A
O11         Cr19   2.063       .  S
O11          C12   1.286       .  A
C12          O13   1.248       .  A
C12        C4987   1.460       .  S
O13         Cr20   1.911       .  S
O14         Cr20   1.974       .  S
O14          C15   1.246       .  A
C15          O16   1.259       .  A
C15        C4947   1.480       .  S
O16         Cr21   2.020       .  S
O17         Cr21   2.041       .  S
O17          C18   1.275       .  A
C18        C4954   1.537       .  S
Cr19         O22   1.764       .  S
Cr20         O22   1.745       .  S
Cr21         O22   1.757       .  S
O23         Cr41   2.018       .  S
O23          C31   1.269       .  A
O24         Cr41   2.036       .  S
O24          C25   1.263       .  A
C25          O26   1.235       .  A
C25        C4884   1.504       .  S
O26         Cr42   1.958       .  S
O27         Cr42   1.929       .  S
O27          C28   1.261       .  A
C28          O29   1.290       .  A
C28        C4924   1.479       .  S
O29         Cr43   2.075       .  S
O30         Cr43   1.998       .  S
O30          C31   1.264       .  A
C31        C4897   1.537       .  S
O32         Cr41   2.018       .  S
O32          C40   1.269       .  A
O33         Cr41   2.028       .  S
O33          C34   1.279       .  A
C34          O35   1.261       .  A
C34        C4877   1.464       .  S
O35         Cr42   1.942       .  S
O36         Cr42   1.960       .  S
O36          C37   1.232       .  A
C37          O38   1.251       .  A
C37        C4914   1.471       .  S
O38         Cr43   2.009       .  S
O39         Cr43   2.036       .  S
O39          C40   1.275       .  A
C40        C4907   1.552       .  S
Cr41         O44   1.760       .  S
Cr42         O44   1.755       .  S
Cr43         O44   1.762       .  S
O45         Cr63   2.038       .  S
O45          C53   1.276       .  A
O46         Cr63   1.987       .  S
O46          C47   1.252       .  A
C47          O48   1.252       .  A
C47        C4854   1.454       .  S
O48         Cr64   1.969       .  S
O49         Cr64   1.934       .  S
O49          C50   1.249       .  A
C50          O51   1.276       .  A
C50        C4817   1.466       .  S
O51         Cr65   2.045       .  S
O52         Cr65   2.000       .  S
O52          C53   1.267       .  A
C53        C4847   1.533       .  S
O54         Cr63   1.996       .  S
O54          C62   1.261       .  A
O55         Cr63   2.047       .  S
O55          C56   1.276       .  A
C56          O57   1.248       .  A
C56        C4864   1.451       .  S
O57         Cr64   1.914       .  S
O58         Cr64   1.987       .  S
O58          C59   1.253       .  A
C59          O60   1.268       .  A
C59        C4827   1.494       .  S
O60         Cr65   2.019       .  S
O61         Cr65   2.045       .  S
O61          C62   1.275       .  A
C62        C4834   1.538       .  S
Cr63         O66   1.768       .  S
Cr64         O66   1.751       .  S
Cr65         O66   1.758       .  S
O67         Cr85   1.997       .  S
O67          C75   1.265       .  A
O68         Cr85   2.050       .  S
O68          C69   1.276       .  A
C69          O70   1.253       .  A
C69        C4804   1.460       .  S
O70         Cr86   1.925       .  S
O71         Cr86   1.984       .  S
O71          C72   1.252       .  A
C72          O73   1.258       .  A
C72        C4754   1.470       .  S
O73         Cr87   1.993       .  S
O74         Cr87   2.050       .  S
O74          C75   1.278       .  A
C75        C4774   1.531       .  S
O76         Cr85   2.036       .  S
O76          C84   1.271       .  A
O77         Cr85   2.006       .  S
O77          C78   1.255       .  A
C78          O79   1.251       .  A
C78        C4794   1.468       .  S
O79         Cr86   1.977       .  S
O80         Cr86   1.944       .  S
O80          C81   1.256       .  A
C81          O82   1.276       .  A
C81        C4764   1.463       .  S
O82         Cr87   2.025       .  S
O83         Cr87   1.995       .  S
O83          C84   1.261       .  A
C84        C4784   1.530       .  S
Cr85         O88   1.780       .  S
Cr86         O88   1.767       .  S
Cr87         O88   1.761       .  S
O89        Cr107   2.013       .  S
O89          C97   1.266       .  A
O90        Cr107   2.012       .  S
O90          C91   1.260       .  A
C91          O92   1.241       .  A
C91        C4744   1.472       .  S
O92        Cr108   1.966       .  S
O93        Cr108   1.967       .  S
O93          C94   1.263       .  A
C94          O95   1.284       .  A
C94        C4697   1.491       .  S
O95        Cr109   2.060       .  S
O96        Cr109   2.009       .  S
O96          C97   1.266       .  A
C97        C4717   1.530       .  S
O98        Cr107   1.977       .  S
O98         C106   1.258       .  A
O99        Cr107   2.020       .  S
O99         C100   1.274       .  A
C100        O101   1.262       .  A
C100       C4734   1.475       .  S
O101       Cr108   1.948       .  S
O102       Cr108   1.966       .  S
O102        C103   1.243       .  A
C103        O104   1.263       .  A
C103       C4704   1.488       .  S
O104       Cr109   2.024       .  S
O105       Cr109   2.054       .  S
O105        C106   1.278       .  A
C106       C4724   1.539       .  S
Cr107       O110   1.770       .  S
Cr108       O110   1.754       .  S
Cr109       O110   1.758       .  S
O111       Cr129   2.047       .  S
O111        C119   1.279       .  A
O112       Cr129   1.976       .  S
O112        C113   1.249       .  A
C113        O114   1.255       .  A
C113       C4684   1.454       .  S
O114       Cr130   1.971       .  S
O115       Cr130   1.948       .  S
O115        C116   1.256       .  A
C116        O117   1.274       .  A
C116       C4637   1.495       .  S
O117       Cr131   2.043       .  S
O118       Cr131   1.996       .  S
O118        C119   1.267       .  A
C119       C4654   1.537       .  S
O120       Cr129   1.994       .  S
O120        C128   1.260       .  A
O121       Cr129   2.053       .  S
O121        C122   1.278       .  A
C122        O123   1.249       .  A
C122       C4674   1.467       .  S
O123       Cr130   1.930       .  S
O124       Cr130   1.980       .  S
O124        C125   1.250       .  A
C125        O126   1.269       .  A
C125       C4644   1.489       .  S
O126       Cr131   2.017       .  S
O127       Cr131   2.052       .  S
O127        C128   1.274       .  A
C128       C4664   1.541       .  S
Cr129       O132   1.767       .  S
Cr130       O132   1.759       .  S
Cr131       O132   1.762       .  S
O133       Cr151   1.963       .  S
O133        C141   1.255       .  A
O134       Cr151   2.033       .  S
O134        C135   1.279       .  A
C135        O136   1.256       .  A
C135       C4624   1.474       .  S
O136       Cr152   1.930       .  S
O137       Cr152   1.980       .  S
O137        C138   1.247       .  A
C138        O139   1.264       .  A
C138       C4814   1.483       .  S
O139       Cr153   2.009       .  S
O140       Cr153   2.049       .  S
O140        C141   1.276       .  A
C141       C4594   1.526       .  S
O142       Cr151   2.028   1_556  S
O142        C150   1.271       .  A
O143       Cr151   1.988   1_556  S
O143        C144   1.250       .  A
C144        O145   1.251       .  A
C144       C4614   1.460       .  S
O145       Cr152   1.979   1_556  S
O146       Cr152   1.938   1_556  S
O146        C147   1.255       .  A
C147        O148   1.279       .  A
C147       C4584   1.471       .  S
O148       Cr153   2.036   1_556  S
O149       Cr153   2.000   1_556  S
O149        C150   1.266       .  A
C150       C4604   1.529       .  S
Cr151       O154   1.763       .  S
Cr152       O154   1.759       .  S
Cr153       O154   1.754       .  S
O155       Cr173   1.992       .  S
O155        C163   1.258       .  A
O156       Cr173   2.028       .  S
O156        C157   1.274       .  A
C157        O158   1.246       .  A
C157       C4574   1.446       .  S
O158       Cr174   1.910       .  S
O159       Cr174   1.974       .  S
O159        C160   1.247       .  A
C160        O161   1.262       .  A
C160       C4634   1.472       .  S
O161       Cr175   2.010       .  S
O162       Cr175   2.055       .  S
O162        C163   1.278       .  A
C163       C4544   1.539       .  S
O164       Cr173   2.033   1_556  S
O164        C172   1.277       .  A
O165       Cr173   1.992   1_556  S
O165        C166   1.258       .  A
C166        O167   1.254       .  A
C166       C4564   1.488       .  S
O167       Cr174   1.983   1_556  S
O168       Cr174   1.942   1_556  S
O168        C169   1.253       .  A
C169        O170   1.283       .  A
C169       C4534   1.481       .  S
O170       Cr175   2.054   1_556  S
O171       Cr175   1.985   1_556  S
O171        C172   1.263       .  A
C172       C4554   1.502       .  S
Cr173       O176   1.773       .  S
Cr174       O176   1.750       .  S
Cr175       O176   1.770       .  S
O177       Cr195   2.021       .  S
O177        C185   1.268       .  A
O178       Cr195   2.024       .  S
O178        C179   1.261       .  A
C179        O180   1.241       .  A
C179       C4524   1.486       .  S
O180       Cr196   1.966   1_545  S
O181       Cr196   1.962   1_545  S
O181        C182   1.259       .  A
C182        O183   1.280       .  A
C182       C4694   1.487       .  S
O183       Cr197   2.051   1_545  S
O184       Cr197   2.006   1_545  S
O184        C185   1.266       .  A
C185       C4494   1.532       .  S
O186       Cr195   1.998   1_565  S
O186        C194   1.264       .  A
O187       Cr195   2.039   1_565  S
O187        C188   1.275       .  A
C188        O189   1.253       .  A
C188       C4514   1.456       .  S
O189       Cr196   1.926       .  S
O190       Cr196   1.965       .  S
O190        C191   1.249       .  A
C191        O192   1.265       .  A
C191       C4484   1.482       .  S
O192       Cr197   2.021       .  S
O193       Cr197   2.041       .  S
O193        C194   1.277       .  A
C194       C4507   1.542       .  S
Cr195       O198   1.776   1_545  S
Cr196       O198   1.752       .  S
Cr197       O198   1.755       .  S
O199       Cr217   2.042   1_455  S
O199        C207   1.275       .  A
O200       Cr217   1.997   1_455  S
O200        C201   1.259       .  A
C201        O202   1.249       .  A
C201       C4474   1.469       .  S
O202       Cr218   1.966   1_455  S
O203       Cr218   1.940   1_455  S
O203        C204   1.257       .  A
C204        O205   1.275       .  A
C204       C4874   1.464       .  S
O205       Cr219   2.035   1_455  S
O206       Cr219   2.006   1_455  S
O206        C207   1.267       .  A
C207       C4444   1.540       .  S
O208       Cr217   1.989       .  S
O208        C216   1.261       .  A
O209       Cr217   2.046       .  S
O209        C210   1.275       .  A
C210        O211   1.247       .  A
C210       C4464   1.458       .  S
O211       Cr218   1.924       .  S
O212       Cr218   1.965       .  S
O212        C213   1.251       .  A
C213        O214   1.269       .  A
C213       C4434   1.492       .  S
O214       Cr219   2.033       .  S
O215       Cr219   2.041       .  S
O215        C216   1.274       .  A
C216       C4454   1.533       .  S
Cr217       O220   1.776       .  S
Cr218       O220   1.747       .  S
Cr219       O220   1.764       .  S
O221       Cr239   1.966   1_455  S
O221        C229   1.259       .  A
O222       Cr239   2.029   1_455  S
O222        C223   1.272       .  A
C223        O224   1.260       .  A
C223       C4424   1.458       .  S
O224       Cr240   1.950   1_455  S
O225       Cr240   1.970   1_455  S
O225        C226   1.251       .  A
C226        O227   1.261       .  A
C226       C4757   1.467       .  S
O227       Cr241   1.998   1_455  S
O228       Cr241   2.046   1_455  S
O228        C229   1.280       .  A
C229       C4394   1.525       .  S
O230       Cr239   2.020       .  S
O230        C238   1.264       .  A
O231       Cr239   2.002       .  S
O231        C232   1.260       .  A
C232        O233   1.243       .  A
C232       C4414   1.488       .  S
O233       Cr240   1.966       .  S
O234       Cr240   1.944       .  S
O234        C235   1.260       .  A
C235        O236   1.278       .  A
C235       C4384   1.478       .  S
O236       Cr241   2.039       .  S
O237       Cr241   2.001       .  S
O237        C238   1.261       .  A
C238       C4407   1.510       .  S
Cr239       O242   1.782       .  S
Cr240       O242   1.754       .  S
Cr241       O242   1.764       .  S
O243       Cr261   2.018       .  S
O243        C251   1.268       .  A
O244       Cr261   2.003       .  S
O244        C245   1.253       .  A
C245        O246   1.254       .  A
C245       C4377   1.472       .  S
O246       Cr262   1.984       .  S
O247       Cr262   1.927       .  S
O247        C248   1.255       .  A
C248        O249   1.280       .  A
C248       C4934   1.470       .  S
O249       Cr263   2.047       .  S
O250       Cr263   2.004       .  S
O250        C251   1.264       .  A
C251       C4347   1.523       .  S
O252       Cr261   1.975   1_565  S
O252        C260   1.256       .  A
O253       Cr261   2.037   1_565  S
O253        C254   1.277       .  A
C254        O255   1.254       .  A
C254       C4364   1.473       .  S
O255       Cr262   1.913   1_565  S
O256       Cr262   1.990   1_565  S
O256        C257   1.253       .  A
C257        O258   1.262       .  A
C257       C4334   1.486       .  S
O258       Cr263   1.997   1_565  S
O259       Cr263   2.061   1_565  S
O259        C260   1.280       .  A
C260       C4357   1.549       .  S
Cr261       O264   1.772       .  S
Cr262       O264   1.765       .  S
Cr263       O264   1.759       .  S
O265       Cr283   2.034   1_556  S
O265        C273   1.272       .  A
O266       Cr283   1.991   1_556  S
O266        C267   1.255       .  A
C267        O268   1.247       .  A
C267       C4314   1.483       .  S
O268       Cr284   1.976   1_556  S
O269       Cr284   1.951   1_556  S
O269        C270   1.263       .  A
C270        O271   1.281       .  A
C270       C4284   1.481       .  S
O271       Cr285   2.053   1_556  S
O272       Cr285   2.020   1_556  S
O272        C273   1.271       .  A
C273       C4304   1.530       .  S
O274       Cr283   1.988       .  S
O274        C282   1.259       .  A
O275       Cr283   2.036       .  S
O275        C276   1.275       .  A
C276        O277   1.251       .  A
C276       C4324   1.458       .  S
O277       Cr284   1.927       .  S
O278       Cr284   1.966       .  S
O278        C279   1.246       .  A
C279        O280   1.268       .  A
C279       C4824   1.492       .  S
O280       Cr285   2.033       .  S
O281       Cr285   2.046       .  S
O281        C282   1.277       .  A
C282       C4297   1.540       .  S
Cr283       O286   1.779       .  S
Cr284       O286   1.756       .  S
Cr285       O286   1.753       .  S
O287       Cr305   1.986   1_556  S
O287        C295   1.259       .  A
O288       Cr305   2.054   1_556  S
O288        C289   1.280       .  A
C289        O290   1.251       .  A
C289       C4267   1.456       .  S
O290       Cr306   1.913   1_556  S
O291       Cr306   1.976       .  S
O291        C292   1.252   1_554  A
C292        O293   1.263       .  A
C292       C4234   1.468       .  S
O293       Cr307   2.007   1_556  S
O294       Cr307   2.046   1_556  S
O294        C295   1.275       .  A
C295       C4257   1.527       .  S
O296       Cr305   2.042       .  S
O296        C304   1.277       .  A
O297       Cr305   1.986       .  S
O297        C298   1.251       .  A
C298        O299   1.250       .  A
C298       C4274   1.450       .  S
O299       Cr306   1.957       .  S
O300       Cr306   1.947       .  S
O300        C301   1.251       .  A
C301        O302   1.278       .  A
C301       C4647   1.474       .  S
O302       Cr307   2.051       .  S
O303       Cr307   1.976       .  S
O303        C304   1.262       .  A
C304       C4247   1.526       .  S
Cr305       O308   1.767       .  S
Cr306       O308   1.750       .  S
Cr307       O308   1.761       .  S
O309       Cr327   2.022   1_545  S
O309        C317   1.267       .  A
O310       Cr327   2.038   1_545  S
O310        C311   1.281       .  A
C311        O312   1.263       .  A
C311       C4707   1.482       .  S
O312       Cr328   1.961   1_545  S
O313       Cr328   1.959   1_545  S
O313        C314   1.239       .  A
C314        O315   1.264       .  A
C314       C4227   1.499       .  S
O315       Cr329   2.029       .  S
O316       Cr329   2.026       .  S
O316        C317   1.267       .  A
C317       C4194   1.541       .  S
O318       Cr327   2.050       .  S
O318        C326   1.280       .  A
O319       Cr327   2.014       .  S
O319        C320   1.261       .  A
C320        O321   1.245       .  A
C320       C4184   1.462       .  S
O321       Cr328   1.949       .  S
O322       Cr328   1.947       .  S
O322        C323   1.258       .  A
C323        O324   1.273       .  A
C323       C4214   1.455       .  S
O324       Cr329   2.034   1_565  S
O325       Cr329   1.997   1_565  S
O325        C326   1.264       .  A
C326       C4204   1.549       .  S
Cr327       O330   1.761       .  S
Cr328       O330   1.759       .  S
Cr329       O330   1.775   1_545  S
O331       Cr349   2.045       .  S
O331        C339   1.278       .  A
O332       Cr349   1.992       .  S
O332        C333   1.257       .  A
C333        O334   1.252       .  A
C333       C4167   1.474       .  S
O334       Cr350   1.989       .  S
O335       Cr350   1.925       .  S
O335        C336   1.256       .  A
C336        O337   1.282       .  A
C336       C4134   1.472       .  S
O337       Cr351   2.053       .  S
O338       Cr351   1.981       .  S
O338        C339   1.261       .  A
C339       C4154   1.531       .  S
O340       Cr349   1.981   1_455  S
O340        C348   1.260       .  A
O341       Cr349   2.070   1_455  S
O341        C342   1.276       .  A
C342        O343   1.240       .  A
C342       C4174   1.465       .  S
O343       Cr350   1.926   1_455  S
O344       Cr350   1.968   1_455  S
O344        C345   1.251       .  A
C345        O346   1.262       .  A
C345       C4887   1.486       .  S
O346       Cr351   2.019   1_455  S
O347       Cr351   2.031   1_455  S
O347        C348   1.274       .  A
C348       C4144   1.521       .  S
Cr349       O352   1.783       .  S
Cr350       O352   1.734       .  S
Cr351       O352   1.759       .  S
O353       Cr371   2.026       .  S
O353        C361   1.271       .  A
O354       Cr371   1.996       .  S
O354        C355   1.259       .  A
C355        O356   1.253       .  A
C355       C4114   1.486       .  S
O356       Cr372   1.987       .  S
O357       Cr372   1.950       .  S
O357        C358   1.261       .  A
C358        O359   1.278       .  A
C358       C4084   1.478       .  S
O359       Cr373   2.050       .  S
O360       Cr373   2.014       .  S
O360        C361   1.269       .  A
C361       C4104   1.523       .  S
O362       Cr371   1.985   1_455  S
O362        C370   1.258       .  A
O363       Cr371   2.029   1_455  S
O363        C364   1.273       .  A
C364        O365   1.253       .  A
C364       C4124   1.476       .  S
O365       Cr372   1.943   1_455  S
O366       Cr372   1.964   1_455  S
O366        C367   1.245       .  A
C367        O368   1.262       .  A
C367       C4767   1.478       .  S
O368       Cr373   2.013   1_455  S
O369       Cr373   2.038   1_455  S
O369        C370   1.275       .  A
C370       C4094   1.541       .  S
Cr371       O374   1.772       .  S
Cr372       O374   1.754       .  S
Cr373       O374   1.761       .  S
O375       Cr393   2.003   1_565  S
O375        C383   1.264       .  A
O376       Cr393   2.044   1_565  S
O376        C377   1.281       .  A
C377        O378   1.257       .  A
C377       C4064   1.469       .  S
O378       Cr394   1.947   1_565  S
O379       Cr394   1.941   1_565  S
O379        C380   1.236       .  A
C380        O381   1.264       .  A
C380       C4034   1.487       .  S
O381       Cr395   2.049   1_565  S
O382       Cr395   2.034   1_565  S
O382        C383   1.272       .  A
C383       C4054   1.535       .  S
O384       Cr393   2.034       .  S
O384        C392   1.274       .  A
O385       Cr393   2.025       .  S
O385        C386   1.262       .  A
C386        O387   1.241       .  A
C386       C4074   1.481       .  S
O387       Cr394   1.958       .  S
O388       Cr394   1.953       .  S
O388        C389   1.266       .  A
C389        O390   1.282       .  A
C389       C4944   1.486       .  S
O390       Cr395   2.050       .  S
O391       Cr395   2.001       .  S
O391        C392   1.266       .  A
C392       C4044   1.542       .  S
Cr393       O396   1.762       .  S
Cr394       O396   1.747       .  S
Cr395       O396   1.760       .  S
O397       Cr415   2.004       .  S
O397        C405   1.268       .  A
O398       Cr415   2.054       .  S
O398        C399   1.277       .  A
C399        O400   1.263       .  A
C399       C4024   1.471       .  S
O400       Cr416   1.950       .  S
O401       Cr416   1.965       .  S
O401        C402   1.250       .  A
C402        O403   1.262       .  A
C402       C3987   1.478       .  S
O403       Cr417   1.992       .  S
O404       Cr417   2.044       .  S
O404        C405   1.278       .  A
C405       C3994   1.518       .  S
O406       Cr415   2.035       .  S
O406        C414   1.269       .  A
O407       Cr415   2.033       .  S
O407        C408   1.262       .  A
C408        O409   1.230       .  A
C408       C4014   1.488       .  S
O409       Cr416   1.948       .  S
O410       Cr416   1.972       .  S
O410        C411   1.259       .  A
C411        O412   1.276       .  A
C411       C3974   1.481       .  S
O412       Cr417   2.036       .  S
O413       Cr417   2.010       .  S
O413        C414   1.264       .  A
C414       C4004   1.542       .  S
Cr415       O418   1.784       .  S
Cr416       O418   1.767       .  S
Cr417       O418   1.763       .  S
O419       Cr437   1.995       .  S
O419        C427   1.261       .  A
O420       Cr437   2.023       .  S
O420        C421   1.270       .  A
C421        O422   1.247       .  A
C421       C3954   1.444       .  S
O422       Cr438   1.916       .  S
O423       Cr438   1.978       .  S
O423        C424   1.255       .  A
C424        O425   1.266       .  A
C424       C3914   1.482       .  S
O425       Cr439   2.024       .  S
O426       Cr439   2.035       .  S
O426        C427   1.272       .  A
C427       C3944   1.526       .  S
O428       Cr437   2.039       .  S
O428        C436   1.275       .  A
O429       Cr437   1.985       .  S
O429        C430   1.256       .  A
C430        O431   1.252       .  A
C430       C3964   1.455       .  S
O431       Cr438   1.970       .  S
O432       Cr438   1.934       .  S
O432        C433   1.250       .  A
C433        O434   1.272       .  A
C433       C3927   1.458       .  S
O434       Cr439   2.036       .  S
O435       Cr439   2.017       .  S
O435        C436   1.270       .  A
C436       C3934   1.540       .  S
Cr437       O440   1.772       .  S
Cr438       O440   1.757       .  S
Cr439       O440   1.766       .  S
O441       Cr459   2.089       .  S
O441        C449   1.285       .  A
O442       Cr459   2.009       .  S
O442        C443   1.274       .  A
C443        O444   1.274       .  A
C443       C3874   1.523       .  S
O444       Cr460   2.038       .  S
O445       Cr460   2.010       .  S
O445        C446   1.261       .  A
C446        O447   1.246       .  A
C446       C4164   1.463       .  S
O447       Cr461   1.954       .  S
O448       Cr461   1.928       .  S
O448        C449   1.251       .  A
C449       C3894   1.495       .  S
O450       Cr459   2.039       .  S
O450        C458   1.270       .  A
O451       Cr459   2.056       .  S
O451        C452   1.276       .  A
C452        O453   1.264       .  A
C452       C4007   1.546       .  S
O453       Cr460   2.005       .  S
O454       Cr460   2.039       .  S
O454        C455   1.277       .  A
C455        O456   1.252       .  A
C455       C3884   1.457       .  S
O456       Cr461   1.940       .  S
O457       Cr461   1.975       .  S
O457        C458   1.244       .  A
C458       C3907   1.501       .  S
Cr459       O462   1.767       .  S
Cr460       O462   1.772       .  S
Cr461       O462   1.768       .  S
O463       Cr481   2.054       .  S
O463        C471   1.277       .  A
O464       Cr481   2.077       .  S
O464        C465   1.279       .  A
C465        O466   1.241       .  A
C465       C3904   1.488       .  S
O466       Cr482   1.917       .  S
O467       Cr482   1.974       .  S
O467        C468   1.258       .  A
C468        O469   1.259       .  A
C468       C4017   1.458       .  S
O469       Cr483   1.984       .  S
O470       Cr483   2.017       .  S
O470        C471   1.265       .  A
C471       C3854   1.548       .  S
O472       Cr481   2.061       .  S
O472        C480   1.282       .  A
O473       Cr481   2.036       .  S
O473        C474   1.272       .  A
C474        O475   1.258       .  A
C474       C3864   1.495       .  S
O475       Cr482   1.990       .  S
O476       Cr482   1.937       .  S
O476        C477   1.249       .  A
C477        O478   1.273       .  A
C477       C4977   1.498       .  S
O478       Cr483   2.050       .  S
O479       Cr483   1.983       .  S
O479        C480   1.266       .  A
C480       C4344   1.516       .  S
Cr481       O484   1.760       .  S
Cr482       O484   1.754       .  S
Cr483       O484   1.758       .  S
O485       Cr503   2.010       .  S
O485        C493   1.268       .  A
O486       Cr503   2.072       .  S
O486        C487   1.279       .  A
C487        O488   1.247       .  A
C487       C3844   1.486       .  S
O488       Cr504   1.926       .  S
O489       Cr504   1.973       .  S
O489        C490   1.254       .  A
C490        O491   1.263       .  A
C490       C3827   1.470       .  S
O491       Cr505   2.003       .  S
O492       Cr505   2.010       .  S
O492        C493   1.265       .  A
C493       C4557   1.499       .  S
O494       Cr503   2.057       .  S
O494        C502   1.278       .  A
O495       Cr503   2.014       .  S
O495        C496   1.267       .  A
C496        O497   1.254       .  A
C496       C3897   1.501       .  S
O497       Cr504   1.993       .  S
O498       Cr504   1.943       .  S
O498        C499   1.257       .  A
C499        O500   1.271       .  A
C499       C3834   1.468       .  S
O500       Cr505   2.027       .  S
O501       Cr505   1.980       .  S
O501        C502   1.266       .  A
C502       C4157   1.517       .  S
Cr503       O506   1.770       .  S
Cr504       O506   1.759       .  S
Cr505       O506   1.771       .  S
O507       Cr525   2.010       .  S
O507        C515   1.270       .  A
O508       Cr525   2.066       .  S
O508        C509   1.283       .  A
C509        O510   1.256       .  A
C509       C3847   1.481       .  S
O510       Cr526   1.937       .  S
O511       Cr526   1.979       .  S
O511        C512   1.252       .  A
C512        O513   1.262       .  A
C512       C4567   1.475       .  S
O513       Cr527   1.999       .  S
O514       Cr527   2.009       .  S
O514        C515   1.268       .  A
C515       C3794   1.495       .  S
O516       Cr525   2.047       .  S
O516        C524   1.273       .  A
O517       Cr525   2.033       .  S
O517        C518   1.265       .  A
C518        O519   1.246       .  A
C518       C3814   1.491       .  S
O519       Cr526   1.971       .  S
O520       Cr526   1.950       .  S
O520        C521   1.254       .  A
C521        O522   1.272       .  A
C521       C3804   1.465       .  S
O522       Cr527   1.998       .  S
O523       Cr527   1.986       .  S
O523        C524   1.260       .  A
C524       C3947   1.523       .  S
Cr525       O528   1.774       .  S
Cr526       O528   1.771       .  S
Cr527       O528   1.762       .  S
O529       Cr547   2.072       .  S
O529        C537   1.282       .  A
O530       Cr547   2.038       .  S
O530        C531   1.271       .  A
C531        O532   1.250       .  A
C531       C3784   1.509       .  S
O532       Cr548   1.981       .  S
O533       Cr548   1.951       .  S
O533        C534   1.261       .  A
C534        O535   1.274       .  A
C534       C4737   1.457       .  S
O535       Cr549   2.027       .  S
O536       Cr549   1.988       .  S
O536        C537   1.263       .  A
C537       C4197   1.536       .  S
O538       Cr547   2.023       .  S
O538        C546   1.270       .  A
O539       Cr547   2.070       .  S
O539        C540   1.283       .  A
C540        O541   1.251       .  A
C540       C3817   1.491       .  S
O541       Cr548   1.938       .  S
O542       Cr548   1.956       .  S
O542        C543   1.244       .  A
C543        O544   1.258       .  A
C543       C3957   1.454       .  S
O544       Cr549   1.987       .  S
O545       Cr549   2.028       .  S
O545        C546   1.270       .  A
C546       C3774   1.534       .  S
Cr547       O550   1.766       .  S
Cr548       O550   1.774       .  S
Cr549       O550   1.766       .  S
O551       Cr569   2.036       .  S
O551        C559   1.274       .  A
O552       Cr569   2.073       .  S
O552        C553   1.281       .  A
C553        O554   1.250       .  A
C553       C3787   1.499       .  S
O554       Cr570   1.934       .  S
O555       Cr570   1.954       .  S
O555        C556   1.250       .  A
C556        O557   1.265       .  A
C556       C4224   1.475       .  S
O557       Cr571   2.003       .  S
O558       Cr571   2.026       .  S
O558        C559   1.267       .  A
C559       C4727   1.541       .  S
O560       Cr569   2.052       .  S
O560        C568   1.277       .  A
O561       Cr569   2.037       .  S
O561        C562   1.270       .  A
C562        O563   1.251       .  A
C562       C3867   1.499       .  S
O563       Cr570   1.980       .  S
O564       Cr570   1.976       .  S
O564        C565   1.264       .  A
C565        O566   1.273       .  A
C565       C4374   1.487       .  S
O566       Cr571   2.043       .  S
O567       Cr571   2.006       .  S
O567        C568   1.271       .  A
C568       C4964   1.528       .  S
Cr569       O572   1.772       .  S
Cr570       O572   1.778       .  S
Cr571       O572   1.768       .  S
O573       Cr591   1.991   1_455  S
O573        C581   1.260       .  A
O574       Cr591   2.034       .  S
O574        C575   1.272   1_655  A
C575        O576   1.251       .  A
C575       C3764   1.458       .  S
O576       Cr592   1.917   1_455  S
O577       Cr592   1.992       .  S
O577        C578   1.258   1_655  A
C578        O579   1.267       .  A
C578       C3744   1.481       .  S
O579       Cr593   1.998   1_455  S
O580       Cr593   2.069   1_455  S
O580        C581   1.283       .  A
C581       C3754   1.528       .  S
O582       Cr591   2.026       .  S
O582        C590   1.271       .  A
O583       Cr591   1.979       .  S
O583        C584   1.249       .  A
C584        O585   1.253       .  A
C584       C3887   1.454       .  S
O585       Cr592   1.978       .  S
O586       Cr592   1.942       .  S
O586        C587   1.250       .  A
C587        O588   1.274       .  A
C587       C3977   1.497       .  S
O588       Cr593   2.054       .  S
O589       Cr593   2.014       .  S
O589        C590   1.267       .  A
C590       C3857   1.541       .  S
Cr591       O594   1.784       .  S
Cr592       O594   1.754       .  S
Cr593       O594   1.768       .  S
O595       Cr613   2.010   1_565  S
O595        C603   1.265       .  A
O596       Cr613   2.055   1_565  S
O596        C597   1.282       .  A
C597        O598   1.255       .  A
C597       C3724   1.464       .  S
O598       Cr614   1.919   1_565  S
O599       Cr614   1.983   1_565  S
O599        C600   1.251       .  A
C600        O601   1.264       .  A
C600       C3697   1.478       .  S
O601       Cr615   1.996   1_565  S
O602       Cr615   2.046   1_565  S
O602        C603   1.274       .  A
C603       C3714   1.525       .  S
O604       Cr613   2.046       .  S
O604        C612   1.279       .  A
O605       Cr613   2.002       .  S
O605        C606   1.253       .  A
C606        O607   1.244       .  A
C606       C3734   1.454       .  S
O607       Cr614   1.950       .  S
O608       Cr614   1.950       .  S
O608        C609   1.247       .  A
C609        O610   1.275       .  A
C609       C3684   1.488       .  S
O610       Cr615   2.041       .  S
O611       Cr615   1.976       .  S
O611        C612   1.262       .  A
C612       C3704   1.530       .  S
Cr613       O616   1.765       .  S
Cr614       O616   1.749       .  S
Cr615       O616   1.765       .  S
O617       Cr635   2.022       .  S
O617        C625   1.267       .  A
O618       Cr635   2.035       .  S
O618        C619   1.262       .  A
C619        O620   1.238       .  A
C619       C3677   1.502       .  S
O620       Cr636   1.954       .  S
O621       Cr636   1.953       .  S
O621        C622   1.258       .  A
C622        O623   1.281       .  A
C622       C3637   1.482       .  S
O623       Cr637   2.038       .  S
O624       Cr637   2.011       .  S
O624        C625   1.266       .  A
C625       C3644   1.536       .  S
O626       Cr635   1.987       .  S
O626        C634   1.263       .  A
O627       Cr635   2.031       .  S
O627        C628   1.277       .  A
C628        O629   1.262       .  A
C628       C3664   1.460       .  S
O629       Cr636   1.945       .  S
O630       Cr636   1.955       .  S
O630        C631   1.245       .  A
C631        O632   1.259       .  A
C631       C3687   1.483       .  S
O632       Cr637   2.006       .  S
O633       Cr637   2.042       .  S
O633        C634   1.277       .  A
C634       C3654   1.541       .  S
Cr635       O638   1.770       .  S
Cr636       O638   1.758       .  S
Cr637       O638   1.760       .  S
O639       Cr657   1.990       .  S
O639        C647   1.264       .  A
O640       Cr657   2.034       .  S
O640        C641   1.274       .  A
C641        O642   1.258       .  A
C641       C3587   1.485       .  S
O642       Cr658   1.953       .  S
O643       Cr658   1.967       .  S
O643        C644   1.253       .  A
C644        O645   1.249       .  A
C644       C3624   1.449       .  S
O645       Cr659   1.973       .  S
O646       Cr659   2.042       .  S
O646        C647   1.276       .  A
C647       C3594   1.532       .  S
O648       Cr657   2.048       .  S
O648        C656   1.275       .  A
O649       Cr657   2.016       .  S
O649        C650   1.270       .  A
C650        O651   1.251       .  A
C650       C3747   1.498       .  S
O651       Cr658   1.974       .  S
O652       Cr658   1.928       .  S
O652        C653   1.252       .  A
C653        O654   1.280       .  A
C653       C3614   1.466       .  S
O654       Cr659   2.052       .  S
O655       Cr659   1.973       .  S
O655        C656   1.255       .  A
C656       C3604   1.521       .  S
Cr657       O660   1.763       .  S
Cr658       O660   1.759       .  S
Cr659       O660   1.773       .  S
O661       Cr679   2.026       .  S
O661        C669   1.273       .  A
O662       Cr679   2.088       .  S
O662        C663   1.289       .  A
C663        O664   1.251       .  A
C663       C3574   1.496       .  S
O664       Cr680   1.933       .  S
O665       Cr680   1.958       .  S
O665        C666   1.249       .  A
C666        O667   1.263       .  A
C666       C3737   1.457       .  S
O667       Cr681   2.005       .  S
O668       Cr681   2.020       .  S
O668        C669   1.267       .  A
C669       C3657   1.537       .  S
O670       Cr679   2.060       .  S
O670        C678   1.279       .  A
O671       Cr679   2.045       .  S
O671        C672   1.267       .  A
C672        O673   1.248       .  A
C672       C3564   1.497       .  S
O673       Cr680   1.975       .  S
O674       Cr680   1.951       .  S
O674        C675   1.256       .  A
C675        O676   1.275       .  A
C675       C4527   1.470       .  S
O676       Cr681   2.018       .  S
O677       Cr681   1.975       .  S
O677        C678   1.261       .  A
C678       C4714   1.517       .  S
Cr679       O682   1.759       .  S
Cr680       O682   1.767       .  S
Cr681       O682   1.758       .  S
O683       Cr701   2.048       .  S
O683        C691   1.277       .  A
O684       Cr701   2.020       .  S
O684        C685   1.266       .  A
C685        O686   1.255       .  A
C685       C3544   1.483       .  S
O686       Cr702   1.989       .  S
O687       Cr702   1.946       .  S
O687        C688   1.255       .  A
C688        O689   1.264       .  A
C688       C4177   1.462       .  S
O689       Cr703   1.993       .  S
O690       Cr703   1.997       .  S
O690        C691   1.266       .  A
C691       C4894   1.518       .  S
O692       Cr701   2.032       .  S
O692        C700   1.274       .  A
O693       Cr701   2.064       .  S
O693        C694   1.277       .  A
C694        O695   1.246       .  A
C694       C3557   1.478       .  S
O695       Cr702   1.925       .  S
O696       Cr702   1.969       .  S
O696        C697   1.254       .  A
C697        O698   1.265       .  A
C697       C3767   1.464       .  S
O698       Cr703   1.997       .  S
O699       Cr703   2.006       .  S
O699        C700   1.264       .  A
C700       C3607   1.521       .  S
Cr701       O704   1.764       .  S
Cr702       O704   1.766       .  S
Cr703       O704   1.760       .  S
O705       Cr723   2.055       .  S
O705        C713   1.276       .  A
O706       Cr723   2.045       .  S
O706        C707   1.275       .  A
C707        O708   1.251       .  A
C707       C3577   1.510       .  S
O708       Cr724   1.988       .  S
O709       Cr724   1.933       .  S
O709        C710   1.248       .  A
C710        O711   1.270       .  A
C710       C3667   1.456       .  S
O711       Cr725   2.029       .  S
O712       Cr725   1.989       .  S
O712        C713   1.261       .  A
C713       C3707   1.524       .  S
O714       Cr723   2.034       .  S
O714        C722   1.277       .  A
O715       Cr723   2.067       .  S
O715        C716   1.278       .  A
C716        O717   1.248       .  A
C716       C3554   1.484       .  S
O717       Cr724   1.931       .  S
O718       Cr724   1.971       .  S
O718        C719   1.254       .  A
C719        O720   1.261       .  A
C719       C3617   1.470       .  S
O720       Cr725   1.993       .  S
O721       Cr725   2.029       .  S
O721        C722   1.272       .  A
C722       C3757   1.519       .  S
Cr723       O726   1.769       .  S
Cr724       O726   1.758       .  S
Cr725       O726   1.770       .  S
O727       Cr745   2.088       .  S
O727        C735   1.287       .  A
O728       Cr745   2.033       .  S
O728        C729   1.272       .  A
C729        O730   1.252       .  A
C729       C3524   1.502       .  S
O730       Cr746   1.988       .  S
O731       Cr746   1.953       .  S
O731        C732   1.254       .  A
C732        O733   1.274       .  A
C732       C3504   1.474       .  S
O733       Cr747   2.038       .  S
O734       Cr747   1.983       .  S
O734        C735   1.262       .  A
C735       C3937   1.533       .  S
O736       Cr745   2.023       .  S
O736        C744   1.272       .  A
O737       Cr745   2.099       .  S
O737        C738   1.287       .  A
C738        O739   1.247       .  A
C738       C3534   1.505       .  S
O739       Cr746   1.933       .  S
O740       Cr746   1.969       .  S
O740        C741   1.256       .  A
C741        O742   1.257       .  A
C741       C3494   1.464       .  S
O742       Cr747   1.985       .  S
O743       Cr747   2.019       .  S
O743        C744   1.267       .  A
C744       C3514   1.511       .  S
Cr745       O748   1.762       .  S
Cr746       O748   1.761       .  S
Cr747       O748   1.767       .  S
O749       Cr767   2.026       .  S
O749        C757   1.271       .  A
O750       Cr767   2.055       .  S
O750        C751   1.279       .  A
C751        O752   1.260       .  A
C751       C3547   1.481       .  S
O752       Cr768   1.954       .  S
O753       Cr768   1.979       .  S
O753        C754   1.253       .  A
C754        O755   1.266       .  A
C754       C4927   1.482       .  S
O755       Cr769   2.016       .  S
O756       Cr769   1.998       .  S
O756        C757   1.261       .  A
C757       C4147   1.520       .  S
O758       Cr767   2.055       .  S
O758        C766   1.276       .  A
O759       Cr767   2.042       .  S
O759        C760   1.271       .  A
C760        O761   1.249       .  A
C760       C3537   1.520       .  S
O761       Cr768   1.982       .  S
O762       Cr768   1.956       .  S
O762        C763   1.258       .  A
C763        O764   1.265       .  A
C763       C3484   1.482       .  S
O764       Cr769   1.992       .  S
O765       Cr769   1.983       .  S
O765        C766   1.263       .  A
C766       C3474   1.510       .  S
Cr767       O770   1.767       .  S
Cr768       O770   1.767       .  S
Cr769       O770   1.771       .  S
O771       Cr789   2.028       .  S
O771        C779   1.274       .  A
O772       Cr789   2.069       .  S
O772        C773   1.283       .  A
C773        O774   1.252       .  A
C773       C3527   1.488       .  S
O774       Cr790   1.940       .  S
O775       Cr790   1.983       .  S
O775        C776   1.256       .  A
C776        O777   1.257       .  A
C776       C3967   1.461       .  S
O777       Cr791   1.983       .  S
O778       Cr791   2.026       .  S
O778        C779   1.270       .  A
C779       C3467   1.528       .  S
O780       Cr789   2.063       .  S
O780        C788   1.278       .  A
O781       Cr789   2.034       .  S
O781        C782   1.269       .  A
C782        O783   1.256       .  A
C782       C3567   1.492       .  S
O783       Cr790   1.987       .  S
O784       Cr790   1.942       .  S
O784        C785   1.251       .  A
C785        O786   1.273       .  A
C785       C4747   1.462       .  S
O786       Cr791   2.016       .  S
O787       Cr791   1.979       .  S
O787        C788   1.258       .  A
C788       C4497   1.524       .  S
Cr789       O792   1.761       .  S
Cr790       O792   1.769       .  S
Cr791       O792   1.758       .  S
O793       Cr811   1.997       .  S
O793        C801   1.263       .  A
O794       Cr811   2.011       .  S
O794        C795   1.263       .  A
C795        O796   1.253       .  A
C795       C3487   1.445       .  S
O796       Cr812   1.931       .  S
O797       Cr812   1.978       .  S
O797        C798   1.252       .  A
C798        O799   1.260       .  A
C798       C3434   1.489       .  S
O799       Cr813   2.000       .  S
O800       Cr813   2.043       .  S
O800        C801   1.277       .  A
C801       C3517   1.519       .  S
O802       Cr811   2.020       .  S
O802        C810   1.269       .  A
O803       Cr811   1.993       .  S
O803        C804   1.258       .  A
C804        O805   1.252       .  A
C804       C3454   1.458       .  S
O805       Cr812   1.969       .  S
O806       Cr812   1.934       .  S
O806        C807   1.252       .  A
C807        O808   1.276       .  A
C807       C3427   1.464       .  S
O808       Cr813   2.045       .  S
O809       Cr813   2.004       .  S
O809        C810   1.265       .  A
C810       C3444   1.518       .  S
Cr811       O814   1.776       .  S
Cr812       O814   1.753       .  S
Cr813       O814   1.771       .  S
O815       Cr833   2.049       .  S
O815        C823   1.276       .  A
O816       Cr833   2.034       .  S
O816        C817   1.266       .  A
C817        O818   1.248       .  A
C817       C3374   1.474       .  S
O818       Cr834   1.963       .  S
O819       Cr834   1.909       .  S
O819        C820   1.245       .  A
C820        O821   1.277       .  A
C820       C3414   1.444       .  S
O821       Cr835   2.039       .  S
O822       Cr835   1.984       .  S
O822        C823   1.259       .  A
C823       C3384   1.534       .  S
O824       Cr833   2.015       .  S
O824        C832   1.269       .  A
O825       Cr833   2.055       .  S
O825        C826   1.280       .  A
C826        O827   1.254       .  A
C826       C3694   1.468       .  S
O827       Cr834   1.925       .  S
O828       Cr834   1.973       .  S
O828        C829   1.251       .  A
C829        O830   1.256       .  A
C829       C3404   1.467       .  S
O830       Cr835   1.982       .  S
O831       Cr835   2.046       .  S
O831        C832   1.278       .  A
C832       C3394   1.529       .  S
Cr833       O836   1.762       .  S
Cr834       O836   1.750       .  S
Cr835       O836   1.767       .  S
O837       Cr855   2.080       .  S
O837        C845   1.287       .  A
O838       Cr855   2.035       .  S
O838        C839   1.273       .  A
C839        O840   1.269       .  A
C839       C4307   1.524       .  S
O840       Cr856   2.023       .  S
O841       Cr856   1.999       .  S
O841        C842   1.262       .  A
C842        O843   1.243       .  A
C842       C3334   1.461       .  S
O843       Cr857   1.956       .  S
O844       Cr857   1.942       .  S
O844        C845   1.256       .  A
C845       C3364   1.498       .  S
O846       Cr855   2.047       .  S
O846        C854   1.267       .  A
O847       Cr855   2.052       .  S
O847        C848   1.277       .  A
C848        O849   1.264       .  A
C848       C4504   1.540       .  S
O849       Cr856   1.996       .  S
O850       Cr856   2.010       .  S
O850        C851   1.273       .  A
C851        O852   1.269       .  A
C851       C3344   1.480       .  S
O852       Cr857   1.982       .  S
O853       Cr857   1.968       .  S
O853        C854   1.240       .  A
C854       C3354   1.517       .  S
Cr855       O858   1.773       .  S
Cr856       O858   1.763       .  S
Cr857       O858   1.782       .  S
O859       Cr877   2.013       .  S
O859        C867   1.270       .  A
O860       Cr877   2.079       .  S
O860        C861   1.289       .  A
C861        O862   1.257       .  A
C861       C3324   1.489       .  S
O862       Cr878   1.921       .  S
O863       Cr878   1.955       .  S
O863        C864   1.243       .  A
C864        O865   1.265       .  A
C864       C3314   1.464       .  S
O865       Cr879   2.014       .  S
O866       Cr879   2.005       .  S
O866        C867   1.266       .  A
C867       C3447   1.520       .  S
O868       Cr877   2.032       .  S
O868        C876   1.272       .  A
O869       Cr877   2.041       .  S
O869        C870   1.260       .  A
C870        O871   1.238       .  A
C870       C3367   1.499       .  S
O871       Cr878   1.961       .  S
O872       Cr878   1.964       .  S
O872        C873   1.264       .  A
C873        O874   1.274       .  A
C873       C4317   1.469       .  S
O874       Cr879   2.000       .  S
O875       Cr879   2.004       .  S
O875        C876   1.266       .  A
C876       C3304   1.534       .  S
Cr877       O880   1.774       .  S
Cr878       O880   1.783       .  S
Cr879       O880   1.763       .  S
O881       Cr899   2.026       .  S
O881        C889   1.264       .  A
O882       Cr899   2.072       .  S
O882        C883   1.281       .  A
C883        O884   1.263       .  A
C883       C4447   1.537       .  S
O884       Cr900   1.993       .  S
O885       Cr900   2.015       .  S
O885        C886   1.272       .  A
C886        O887   1.253       .  A
C886       C4917   1.464       .  S
O887       Cr901   1.939       .  S
O888       Cr901   1.980       .  S
O888        C889   1.250       .  A
C889       C3297   1.483       .  S
O890       Cr899   2.081       .  S
O890        C898   1.286       .  A
O891       Cr899   2.017       .  S
O891        C892   1.270       .  A
C892        O893   1.269       .  A
C892       C3284   1.530       .  S
O893       Cr900   2.026       .  S
O894       Cr900   2.001       .  S
O894        C895   1.264       .  A
C895        O896   1.254       .  A
C895       C3457   1.473       .  S
O896       Cr901   1.978       .  S
O897       Cr901   1.927       .  S
O897        C898   1.252       .  A
C898       C3327   1.479       .  S
Cr899       O902   1.765       .  S
Cr900       O902   1.763       .  S
Cr901       O902   1.775       .  S
O903       Cr921   2.075       .  S
O903        C911   1.283       .  A
O904       Cr921   2.024       .  S
O904        C905   1.273       .  A
C905        O906   1.273       .  A
C905       C3397   1.516       .  S
O906       Cr922   2.032       .  S
O907       Cr922   2.000       .  S
O907        C908   1.260       .  A
C908        O909   1.252       .  A
C908       C3727   1.471       .  S
O909       Cr923   1.967       .  S
O910       Cr923   1.934       .  S
O910        C911   1.251       .  A
C911       C3277   1.490       .  S
O912       Cr921   2.036       .  S
O912        C920   1.270       .  A
O913       Cr921   2.053       .  S
O913        C914   1.277       .  A
C914        O915   1.262       .  A
C914       C3264   1.511       .  S
O915       Cr922   1.988       .  S
O916       Cr922   2.048       .  S
O916        C917   1.278       .  A
C917        O918   1.253       .  A
C917       C4517   1.476       .  S
O918       Cr923   1.941       .  S
O919       Cr923   1.981       .  S
O919        C920   1.247       .  A
C920       C3357   1.505       .  S
Cr921       O924   1.769       .  S
Cr922       O924   1.777       .  S
Cr923       O924   1.767       .  S
O925       Cr943   2.070       .  S
O925        C933   1.282       .  A
O926       Cr943   2.045       .  S
O926        C927   1.275       .  A
C927        O928   1.252       .  A
C927       C3254   1.510       .  S
O928       Cr944   1.985       .  S
O929       Cr944   1.941       .  S
O929        C930   1.249       .  A
C930        O931   1.278       .  A
C930       C4797   1.479       .  S
O931       Cr945   2.069       .  S
O932       Cr945   1.989       .  S
O932        C933   1.263       .  A
C933       C4097   1.535       .  S
O934       Cr943   2.029       .  S
O934        C942   1.274       .  A
O935       Cr943   2.090       .  S
O935        C936   1.283       .  A
C936        O937   1.243       .  A
C936       C3274   1.495       .  S
O937       Cr944   1.922       .  S
O938       Cr944   1.951       .  S
O938        C939   1.251       .  A
C939        O940   1.256       .  A
C939       C3407   1.451       .  S
O940       Cr945   1.986       .  S
O941       Cr945   2.041       .  S
O941        C942   1.275       .  A
C942       C3717   1.526       .  S
Cr943       O946   1.760       .  S
Cr944       O946   1.750       .  S
Cr945       O946   1.770       .  S
O947       Cr965   2.075       .  S
O947        C955   1.281       .  A
O948       Cr965   2.034       .  S
O948        C949   1.275       .  A
C949        O950   1.277       .  A
C949       C4904   1.540       .  S
O950       Cr966   2.041       .  S
O951       Cr966   2.004       .  S
O951        C952   1.262       .  A
C952        O953   1.247       .  A
C952       C4477   1.463       .  S
O953       Cr967   1.952       .  S
O954       Cr967   1.925       .  S
O954        C955   1.249       .  A
C955       C3294   1.480       .  S
O956       Cr965   2.050       .  S
O956        C964   1.269       .  A
O957       Cr965   2.041       .  S
O957        C958   1.273       .  A
C958        O959   1.267       .  A
C958       C4787   1.533       .  S
O959       Cr966   2.009       .  S
O960       Cr966   2.040       .  S
O960        C961   1.276       .  A
C961        O962   1.260       .  A
C961       C4127   1.474       .  S
O962       Cr967   1.965       .  S
O963       Cr967   1.970       .  S
O963        C964   1.241       .  A
C964       C3257   1.515       .  S
Cr965       O968   1.774       .  S
Cr966       O968   1.764       .  S
Cr967       O968   1.774       .  S
O969       Cr987   2.026       .  S
O969        C977   1.270       .  A
O970       Cr987   2.000       .  S
O970        C971   1.259       .  A
C971        O972   1.244       .  A
C971       C3244   1.464       .  S
O972       Cr988   1.966       .  S
O973       Cr988   1.950       .  S
O973        C974   1.260       .  A
C974        O975   1.282       .  A
C974       C3204   1.483       .  S
O975       Cr989   2.054       .  S
O976       Cr989   1.996       .  S
O976        C977   1.265       .  A
C977       C3214   1.530       .  S
O978       Cr987   1.989       .  S
O978        C986   1.261       .  A
O979       Cr987   2.027       .  S
O979        C980   1.277       .  A
C980        O981   1.258       .  A
C980       C3234   1.478       .  S
O981       Cr988   1.945       .  S
O982       Cr988   1.959       .  S
O982        C983   1.243       .  A
C983        O984   1.263       .  A
C983       C3194   1.488       .  S
O984       Cr989   2.037       .  S
O985       Cr989   2.038       .  S
O985        C986   1.274       .  A
C986       C3224   1.530       .  S
Cr987       O990   1.761       .  S
Cr988       O990   1.753       .  S
Cr989       O990   1.759       .  S
O991      Cr1009   2.038       .  S
O991        C999   1.276       .  A
O992      Cr1009   2.012       .  S
O992        C993   1.260       .  A
C993        O994   1.245       .  A
C993       C3174   1.474       .  S
O994      Cr1010   1.964       .  S
O995      Cr1010   1.939       .  S
O995        C996   1.252       .  A
C996        O997   1.277       .  A
C996       C3134   1.470       .  S
O997      Cr1011   2.057       .  S
O998      Cr1011   1.996       .  S
O998        C999   1.265       .  A
C999       C3164   1.528       .  S
O1000     Cr1009   1.992       .  S
O1000      C1008   1.262       .  A
O1001     Cr1009   2.042       .  S
O1001      C1002   1.278       .  A
C1002      O1003   1.254       .  A
C1002      C3184   1.459       .  S
O1003     Cr1010   1.930       .  S
O1004     Cr1010   1.952       .  S
O1004      C1005   1.245       .  A
C1005      O1006   1.263       .  A
C1005      C3147   1.467       .  S
O1006     Cr1011   2.027       .  S
O1007     Cr1011   2.036       .  S
O1007      C1008   1.273       .  A
C1008      C3154   1.527       .  S
Cr1009     O1012   1.763       .  S
Cr1010     O1012   1.743       .  S
Cr1011     O1012   1.771       .  S
O1013     Cr1031   2.084       .  S
O1013      C1021   1.288       .  A
O1014     Cr1031   2.003       .  S
O1014      C1015   1.266       .  A
C1015      O1016   1.269       .  A
C1015      C3094   1.527       .  S
O1016     Cr1032   2.030       .  S
O1017     Cr1032   1.981       .  S
O1017      C1018   1.258       .  A
C1018      O1019   1.255       .  A
C1018      C4067   1.477       .  S
O1019     Cr1033   1.994       .  S
O1020     Cr1033   1.919       .  S
O1020      C1021   1.250       .  A
C1021      C3114   1.490       .  S
O1022     Cr1031   2.029       .  S
O1022      C1030   1.266       .  A
O1023     Cr1031   2.066       .  S
O1023      C1024   1.281       .  A
C1024      O1025   1.262       .  A
C1024      C3227   1.526       .  S
O1025     Cr1032   1.979       .  S
O1026     Cr1032   2.026       .  S
O1026      C1027   1.272       .  A
C1027      O1028   1.252       .  A
C1027      C3104   1.494       .  S
O1028     Cr1033   1.943       .  S
O1029     Cr1033   1.990       .  S
O1029      C1030   1.254       .  A
C1030      C3124   1.497       .  S
Cr1031     O1034   1.763       .  S
Cr1032     O1034   1.756       .  S
Cr1033     O1034   1.776       .  S
O1035     Cr1053   2.054       .  S
O1035      C1043   1.276       .  A
O1036     Cr1053   2.037       .  S
O1036      C1037   1.267       .  A
C1037      O1038   1.251       .  A
C1037      C3127   1.491       .  S
O1038     Cr1054   1.979       .  S
O1039     Cr1054   1.956       .  S
O1039      C1040   1.259       .  A
C1040      O1041   1.271       .  A
C1040      C3237   1.460       .  S
O1041     Cr1055   2.009       .  S
O1042     Cr1055   1.966       .  S
O1042      C1043   1.257       .  A
C1043      C3074   1.519       .  S
O1044     Cr1053   2.025       .  S
O1044      C1052   1.272       .  A
O1045     Cr1053   2.071       .  S
O1045      C1046   1.284       .  A
C1046      O1047   1.256       .  A
C1046      C3084   1.498       .  S
O1047     Cr1054   1.948       .  S
O1048     Cr1054   1.970       .  S
O1048      C1049   1.252       .  A
C1049      O1050   1.262       .  A
C1049      C4857   1.464       .  S
O1050     Cr1055   1.996       .  S
O1051     Cr1055   2.009       .  S
O1051      C1052   1.265       .  A
C1052      C4597   1.526       .  S
Cr1053     O1056   1.763       .  S
Cr1054     O1056   1.771       .  S
Cr1055     O1056   1.760       .  S
O1057     Cr1075   2.054       .  S
O1057      C1065   1.277       .  A
O1058     Cr1075   2.042       .  S
O1058      C1059   1.266       .  A
C1059      O1060   1.242       .  A
C1059      C3064   1.505       .  S
O1060     Cr1076   1.974       .  S
O1061     Cr1076   1.956       .  S
O1061      C1062   1.259       .  A
C1062      O1063   1.280       .  A
C1062      C3054   1.478       .  S
O1063     Cr1077   2.039       .  S
O1064     Cr1077   1.971       .  S
O1064      C1065   1.260       .  A
C1065      C4404   1.512       .  S
O1066     Cr1075   2.029       .  S
O1066      C1074   1.271       .  A
O1067     Cr1075   2.071       .  S
O1067      C1068   1.285       .  A
C1068      O1069   1.255       .  A
C1068      C3117   1.476       .  S
O1069     Cr1076   1.927       .  S
O1070     Cr1076   1.969       .  S
O1070      C1071   1.249       .  A
C1071      O1072   1.262       .  A
C1071      C3044   1.480       .  S
O1072     Cr1077   2.009       .  S
O1073     Cr1077   2.018       .  S
O1073      C1074   1.268       .  A
C1074      C4057   1.543       .  S
Cr1075     O1078   1.769       .  S
Cr1076     O1078   1.772       .  S
Cr1077     O1078   1.764       .  S
O1079     Cr1097   2.038       .  S
O1079      C1087   1.276       .  A
O1080     Cr1097   2.070       .  S
O1080      C1081   1.278       .  A
C1081      O1082   1.250       .  A
C1081      C3067   1.498       .  S
O1082     Cr1098   1.938       .  S
O1083     Cr1098   1.979       .  S
O1083      C1084   1.258       .  A
C1084      O1085   1.262       .  A
C1084      C4417   1.471       .  S
O1085     Cr1099   1.995       .  S
O1086     Cr1099   2.007       .  S
O1086      C1087   1.263       .  A
C1087      C3014   1.530       .  S
O1088     Cr1097   2.056       .  S
O1088      C1096   1.278       .  A
O1089     Cr1097   2.031       .  S
O1089      C1090   1.273       .  A
C1090      O1091   1.252       .  A
C1090      C3034   1.506       .  S
O1091     Cr1098   1.983       .  S
O1092     Cr1098   1.944       .  S
O1092      C1093   1.252       .  A
C1093      O1094   1.270       .  A
C1093      C3024   1.474       .  S
O1094     Cr1099   2.032       .  S
O1095     Cr1099   1.992       .  S
O1095      C1096   1.266       .  A
C1096      C3167   1.518       .  S
Cr1097     O1100   1.759       .  S
Cr1098     O1100   1.762       .  S
Cr1099     O1100   1.767       .  S
O1101     Cr1119   2.031       .  S
O1101      C1109   1.271       .  A
O1102     Cr1119   2.084       .  S
O1102      C1103   1.284       .  A
C1103      O1104   1.250       .  A
C1103      C3004   1.503       .  S
O1104     Cr1120   1.933       .  S
O1105     Cr1120   1.978       .  S
O1105      C1106   1.257       .  A
C1106      O1107   1.263       .  A
C1106      C4677   1.459       .  S
O1107     Cr1121   1.989       .  S
O1108     Cr1121   2.006       .  S
O1108      C1109   1.263       .  A
C1109      C4244   1.525       .  S
O1110     Cr1119   2.073       .  S
O1110      C1118   1.281       .  A
O1111     Cr1119   2.021       .  S
O1111      C1112   1.265       .  A
C1112      O1113   1.252       .  A
C1112      C3037   1.515       .  S
O1113     Cr1120   1.989       .  S
O1114     Cr1120   1.954       .  S
O1114      C1115   1.257       .  A
C1115      O1116   1.267       .  A
C1115      C3177   1.459       .  S
O1116     Cr1121   2.008       .  S
O1117     Cr1121   1.965       .  S
O1117      C1118   1.261       .  A
C1118      C2994   1.513       .  S
Cr1119     O1122   1.764       .  S
Cr1120     O1122   1.765       .  S
Cr1121     O1122   1.762       .  S
O1123     Cr1141   2.063       .  S
O1123      C1131   1.281       .  A
O1124     Cr1141   2.057       .  S
O1124      C1125   1.270       .  A
C1125      O1126   1.241       .  A
C1125      C3007   1.515       .  S
O1126     Cr1142   1.974       .  S
O1127     Cr1142   1.944       .  S
O1127      C1128   1.260       .  A
C1128      O1129   1.274       .  A
C1128      C4277   1.462       .  S
O1129     Cr1143   2.021       .  S
O1130     Cr1143   1.990       .  S
O1130      C1131   1.263       .  A
C1131      C4667   1.538       .  S
O1132     Cr1141   2.046       .  S
O1132      C1140   1.276       .  A
O1133     Cr1141   2.097       .  S
O1133      C1134   1.292       .  A
C1134      O1135   1.253       .  A
C1134      C3087   1.508       .  S
O1135     Cr1142   1.937       .  S
O1136     Cr1142   1.943       .  S
O1136      C1137   1.237       .  A
C1137      O1138   1.263       .  A
C1137      C4627   1.483       .  S
O1138     Cr1143   2.020       .  S
O1139     Cr1143   2.004       .  S
O1139      C1140   1.265       .  A
C1140      C4844   1.550       .  S
Cr1141     O1144   1.759       .  S
Cr1142     O1144   1.764       .  S
Cr1143     O1144   1.766       .  S
O1145     Cr1163   2.040       .  S
O1145      C1153   1.275       .  A
O1146     Cr1163   1.986       .  S
O1146      C1147   1.250       .  A
C1147      O1148   1.250       .  A
C1147      C2984   1.453       .  S
O1148     Cr1164   1.964       .  S
O1149     Cr1164   1.953       .  S
O1149      C1150   1.251       .  A
C1150      O1151   1.275       .  A
C1150      C2964   1.487       .  S
O1151     Cr1165   2.032       .  S
O1152     Cr1165   1.990       .  S
O1152      C1153   1.262       .  A
C1153      C2974   1.532       .  S
O1154     Cr1163   1.976   1_565  S
O1154      C1162   1.259       .  A
O1155     Cr1163   2.059   1_565  S
O1155      C1156   1.280       .  A
C1156      O1157   1.250       .  A
C1156      C3107   1.461       .  S
O1157     Cr1164   1.919   1_565  S
O1158     Cr1164   1.979   1_565  S
O1158      C1159   1.257       .  A
C1159      O1160   1.267       .  A
C1159      C3197   1.471       .  S
O1160     Cr1165   2.012   1_565  S
O1161     Cr1165   2.046   1_565  S
O1161      C1162   1.276       .  A
C1162      C3077   1.522       .  S
Cr1163     O1166   1.770       .  S
Cr1164     O1166   1.747       .  S
Cr1165     O1166   1.755       .  S
O1167     Cr1185   2.040   1_556  S
O1167      C1175   1.273       .  A
O1168     Cr1185   2.003   1_556  S
O1168      C1169   1.259       .  A
C1169      O1170   1.241       .  A
C1169      C3807   1.471       .  S
O1170     Cr1186   1.964   1_556  S
O1171     Cr1186   1.966   1_556  S
O1171      C1172   1.256       .  A
C1172      O1173   1.276       .  A
C1172      C3917   1.484       .  S
O1173     Cr1187   2.052   1_556  S
O1174     Cr1187   1.998   1_556  S
O1174      C1175   1.262       .  A
C1175      C3777   1.544       .  S
O1176     Cr1185   2.002       .  S
O1176      C1184   1.265       .  A
O1177     Cr1185   2.048       .  S
O1177      C1178   1.277       .  A
C1178      O1179   1.256       .  A
C1178      C2954   1.459       .  S
O1179     Cr1186   1.936       .  S
O1180     Cr1186   1.970       .  S
O1180      C1181   1.253       .  A
C1181      O1182   1.262       .  A
C1181      C2934   1.481       .  S
O1182     Cr1187   1.999       .  S
O1183     Cr1187   2.046       .  S
O1183      C1184   1.276       .  A
C1184      C2944   1.542       .  S
Cr1185     O1188   1.771       .  S
Cr1186     O1188   1.756       .  S
Cr1187     O1188   1.754       .  S
O1189     Cr1207   2.024       .  S
O1189      C1197   1.271       .  A
O1190     Cr1207   1.990       .  S
O1190      C1191   1.252       .  A
C1191      O1192   1.248       .  A
C1191      C2924   1.447       .  S
O1192     Cr1208   1.954       .  S
O1193     Cr1208   1.931       .  S
O1193      C1194   1.249       .  A
C1194      O1195   1.282       .  A
C1194      C2887   1.478       .  S
O1195     Cr1209   2.071       .  S
O1196     Cr1209   1.988       .  S
O1196      C1197   1.262       .  A
C1197      C2894   1.521       .  S
O1198     Cr1207   1.981       .  S
O1198      C1206   1.259       .  A
O1199     Cr1207   2.041       .  S
O1199      C1200   1.276       .  A
C1200      O1201   1.260       .  A
C1200      C2914   1.462       .  S
O1201     Cr1208   1.929       .  S
O1202     Cr1208   1.992       .  S
O1202      C1203   1.251       .  A
C1203      O1204   1.259       .  A
C1203      C2937   1.499       .  S
O1204     Cr1209   1.996       .  S
O1205     Cr1209   2.055       .  S
O1205      C1206   1.282       .  A
C1206      C2904   1.513       .  S
Cr1207     O1210   1.775       .  S
Cr1208     O1210   1.748       .  S
Cr1209     O1210   1.765       .  S
O1211     Cr1229   1.973       .  S
O1211      C1219   1.258       .  A
O1212     Cr1229   2.049       .  S
O1212      C1213   1.283       .  A
C1213      O1214   1.259       .  A
C1213      C2867   1.472       .  S
O1214     Cr1230   1.929       .  S
O1215     Cr1230   1.960       .  S
O1215      C1216   1.244       .  A
C1216      O1217   1.253       .  A
C1216      C2967   1.483       .  S
O1217     Cr1231   2.002       .  S
O1218     Cr1231   2.035       .  S
O1218      C1219   1.276       .  A
C1219      C2854   1.533       .  S
O1220     Cr1229   2.017       .  S
O1220      C1228   1.269       .  A
O1221     Cr1229   2.007       .  S
O1221      C1222   1.255       .  A
C1222      O1223   1.238       .  A
C1222      C2877   1.489       .  S
O1223     Cr1230   1.972       .  S
O1224     Cr1230   1.937       .  S
O1224      C1225   1.260       .  A
C1225      O1226   1.288       .  A
C1225      C2837   1.474       .  S
O1226     Cr1231   2.053       .  S
O1227     Cr1231   2.010       .  S
O1227      C1228   1.264       .  A
C1228      C2844   1.511       .  S
Cr1229     O1232   1.768       .  S
Cr1230     O1232   1.756       .  S
Cr1231     O1232   1.763       .  S
O1233     Cr1251   2.072       .  S
O1233      C1241   1.286       .  A
O1234     Cr1251   2.023       .  S
O1234      C1235   1.269       .  A
C1235      O1236   1.259       .  A
C1235      C2824   1.506       .  S
O1236     Cr1252   1.996       .  S
O1237     Cr1252   1.933       .  S
O1237      C1238   1.251       .  A
C1238      O1239   1.274       .  A
C1238      C2957   1.490       .  S
O1239     Cr1253   2.045       .  S
O1240     Cr1253   1.949       .  S
O1240      C1241   1.260       .  A
C1241      C2907   1.506       .  S
O1242     Cr1251   2.053       .  S
O1242      C1250   1.276       .  A
O1243     Cr1251   2.088       .  S
O1243      C1244   1.284       .  A
C1244      O1245   1.240       .  A
C1244      C2814   1.490       .  S
O1245     Cr1252   1.913       .  S
O1246     Cr1252   1.975       .  S
O1246      C1247   1.257       .  A
C1247      O1248   1.253       .  A
C1247      C4577   1.449       .  S
O1248     Cr1253   1.962       .  S
O1249     Cr1253   2.008       .  S
O1249      C1250   1.261       .  A
C1250      C4657   1.546       .  S
Cr1251     O1254   1.759       .  S
Cr1252     O1254   1.762       .  S
Cr1253     O1254   1.755       .  S
O1255     Cr1273   2.036       .  S
O1255      C1263   1.274       .  A
O1256     Cr1273   2.072       .  S
O1256      C1257   1.284       .  A
C1257      O1258   1.250       .  A
C1257      C2797   1.475       .  S
O1258     Cr1274   1.919       .  S
O1259     Cr1274   1.974       .  S
O1259      C1260   1.251       .  A
C1260      O1261   1.261       .  A
C1260      C4077   1.473       .  S
O1261     Cr1275   1.989       .  S
O1262     Cr1275   2.028       .  S
O1262      C1263   1.270       .  A
C1263      C4957   1.542       .  S
O1264     Cr1273   2.054       .  S
O1264      C1272   1.280       .  A
O1265     Cr1273   2.060       .  S
O1265      C1266   1.273       .  A
C1266      O1267   1.247       .  A
C1266      C2804   1.520       .  S
O1267     Cr1274   1.981       .  S
O1268     Cr1274   1.935       .  S
O1268      C1269   1.251       .  A
C1269      O1270   1.276       .  A
C1269      C2987   1.467       .  S
O1270     Cr1275   2.048       .  S
O1271     Cr1275   1.986       .  S
O1271      C1272   1.263       .  A
C1272      C2857   1.518       .  S
Cr1273     O1276   1.757       .  S
Cr1274     O1276   1.766       .  S
Cr1275     O1276   1.768       .  S
O1277     Cr1295   2.070       .  S
O1277      C1285   1.282       .  A
O1278     Cr1295   2.039       .  S
O1278      C1279   1.267       .  A
C1279      O1280   1.253       .  A
C1279      C2827   1.492       .  S
O1280     Cr1296   1.978       .  S
O1281     Cr1296   1.945       .  S
O1281      C1282   1.255       .  A
C1282      O1283   1.267       .  A
C1282      C2917   1.483       .  S
O1283     Cr1297   2.009       .  S
O1284     Cr1297   1.996       .  S
O1284      C1285   1.266       .  A
C1285      C2947   1.540       .  S
O1286     Cr1295   2.037       .  S
O1286      C1294   1.273       .  A
O1287     Cr1295   2.092       .  S
O1287      C1288   1.288       .  A
C1288      O1289   1.248       .  A
C1288      C2807   1.510       .  S
O1289     Cr1296   1.939       .  S
O1290     Cr1296   1.946       .  S
O1290      C1291   1.249       .  A
C1291      O1292   1.268       .  A
C1291      C2864   1.467       .  S
O1292     Cr1297   2.010       .  S
O1293     Cr1297   2.018       .  S
O1293      C1294   1.265       .  A
C1294      C2977   1.538       .  S
Cr1295     O1298   1.764       .  S
Cr1296     O1298   1.766       .  S
Cr1297     O1298   1.762       .  S
O1299     Cr1317   2.069       .  S
O1299      C1307   1.280       .  A
O1300     Cr1317   2.033       .  S
O1300      C1301   1.263       .  A
C1301      O1302   1.249       .  A
C1301      C2774   1.494       .  S
O1302     Cr1318   1.982       .  S
O1303     Cr1318   1.931       .  S
O1303      C1304   1.247       .  A
C1304      O1305   1.274       .  A
C1304      C2764   1.459       .  S
O1305     Cr1319   2.020       .  S
O1306     Cr1319   1.964       .  S
O1306      C1307   1.256       .  A
C1307      C3157   1.521       .  S
O1308     Cr1317   1.999       .  S
O1308      C1316   1.269       .  A
O1309     Cr1317   2.096       .  S
O1309      C1310   1.293       .  A
C1310      O1311   1.252       .  A
C1310      C2787   1.507       .  S
O1311     Cr1318   1.910       .  S
O1312     Cr1318   2.000       .  S
O1312      C1313   1.261       .  A
C1313      O1314   1.260       .  A
C1313      C2754   1.479       .  S
O1314     Cr1319   1.986       .  S
O1315     Cr1319   2.031       .  S
O1315      C1316   1.271       .  A
C1316      C3997   1.508       .  S
Cr1317     O1320   1.766       .  S
Cr1318     O1320   1.770       .  S
Cr1319     O1320   1.765       .  S
O1321     Cr1339   2.031       .  S
O1321      C1329   1.272       .  A
O1322     Cr1339   2.060       .  S
O1322      C1323   1.276       .  A
C1323      O1324   1.246       .  A
C1323      C2794   1.478       .  S
O1324     Cr1340   1.922       .  S
O1325     Cr1340   1.966       .  S
O1325      C1326   1.250       .  A
C1326      O1327   1.262       .  A
C1326      C4984   1.469       .  S
O1327     Cr1341   1.995       .  S
O1328     Cr1341   2.017       .  S
O1328      C1329   1.264       .  A
C1329      C4047   1.540       .  S
O1330     Cr1339   2.049       .  S
O1330      C1338   1.277       .  A
O1331     Cr1339   2.026       .  S
O1331      C1332   1.271       .  A
C1332      O1333   1.250       .  A
C1332      C2784   1.495       .  S
O1333     Cr1340   1.970       .  S
O1334     Cr1340   1.956       .  S
O1334      C1335   1.257       .  A
C1335      O1336   1.274       .  A
C1335      C4027   1.501       .  S
O1336     Cr1341   2.031       .  S
O1337     Cr1341   1.985       .  S
O1337      C1338   1.267       .  A
C1338      C2744   1.509       .  S
Cr1339     O1342   1.767       .  S
Cr1340     O1342   1.775       .  S
Cr1341     O1342   1.756       .  S
O1343     Cr1361   2.036       .  S
O1343      C1351   1.273       .  A
O1344     Cr1361   2.085       .  S
O1344      C1345   1.286       .  A
C1345      O1346   1.254       .  A
C1345      C2777   1.492       .  S
O1346     Cr1362   1.929       .  S
O1347     Cr1362   1.964       .  S
O1347      C1348   1.249       .  A
C1348      O1349   1.261       .  A
C1348      C3187   1.467       .  S
O1349     Cr1363   1.996       .  S
O1350     Cr1363   2.020       .  S
O1350      C1351   1.267       .  A
C1351      C2734   1.552       .  S
O1352     Cr1361   2.077       .  S
O1352      C1360   1.284       .  A
O1353     Cr1361   2.055       .  S
O1353      C1354   1.273       .  A
C1354      O1355   1.243       .  A
C1354      C2817   1.505       .  S
O1355     Cr1362   1.969       .  S
O1356     Cr1362   1.948       .  S
O1356      C1357   1.257       .  A
C1357      O1358   1.273       .  A
C1357      C4687   1.466       .  S
O1358     Cr1363   2.029       .  S
O1359     Cr1363   1.986       .  S
O1359      C1360   1.261       .  A
C1360      C4547   1.541       .  S
Cr1361     O1364   1.761       .  S
Cr1362     O1364   1.761       .  S
Cr1363     O1364   1.762       .  S
O1365     Cr1383   2.039       .  S
O1365      C1373   1.274       .  A
O1366     Cr1383   2.027       .  S
O1366      C1367   1.263       .  A
C1367      O1368   1.237       .  A
C1367      C2724   1.482       .  S
O1368     Cr1384   1.960       .  S
O1369     Cr1384   1.957       .  S
O1369      C1370   1.251       .  A
C1370      O1371   1.274       .  A
C1370      C2704   1.477       .  S
O1371     Cr1385   2.050       .  S
O1372     Cr1385   1.997       .  S
O1372      C1373   1.262       .  A
C1373      C2717   1.533       .  S
O1374     Cr1383   2.006   1_556  S
O1374      C1382   1.267       .  A
O1375     Cr1383   2.060   1_556  S
O1375      C1376   1.279       .  A
C1376      O1377   1.254       .  A
C1376      C3317   1.463       .  S
O1377     Cr1384   1.932   1_556  S
O1378     Cr1384   1.966   1_556  S
O1378      C1379   1.254       .  A
C1379      O1380   1.262       .  A
C1379      C3424   1.467       .  S
O1380     Cr1385   1.993   1_556  S
O1381     Cr1385   2.040   1_556  S
O1381      C1382   1.277       .  A
C1382      C3287   1.535       .  S
Cr1383     O1386   1.769       .  S
Cr1384     O1386   1.747       .  S
Cr1385     O1386   1.759       .  S
O1387     Cr1405   2.047   1_455  S
O1387      C1395   1.285       .  A
O1388     Cr1405   2.008   1_455  S
O1388      C1389   1.265       .  A
C1389      O1390   1.252       .  A
C1389      C2677   1.471       .  S
O1390     Cr1406   1.970   1_455  S
O1391     Cr1406   1.916   1_455  S
O1391      C1392   1.239       .  A
C1392      O1393   1.268       .  A
C1392      C2694   1.452       .  S
O1393     Cr1407   2.046   1_455  S
O1394     Cr1407   2.002   1_455  S
O1394      C1395   1.256       .  A
C1395      C2684   1.540       .  S
O1396     Cr1405   2.008       .  S
O1396      C1404   1.267       .  A
O1397     Cr1405   2.033       .  S
O1397      C1398   1.274       .  A
C1398      O1399   1.259       .  A
C1398      C3137   1.488       .  S
O1399     Cr1406   1.945       .  S
O1400     Cr1406   1.988       .  S
O1400      C1401   1.256       .  A
C1401      O1402   1.260       .  A
C1401      C3027   1.472       .  S
O1402     Cr1407   1.994       .  S
O1403     Cr1407   2.033       .  S
O1403      C1404   1.276       .  A
C1404      C2997   1.529       .  S
Cr1405     O1408   1.761       .  S
Cr1406     O1408   1.739       .  S
Cr1407     O1408   1.786       .  S
O1409     Cr1427   2.006       .  S
O1409      C1417   1.265       .  A
O1410     Cr1427   2.049       .  S
O1410      C1411   1.272       .  A
C1411      O1412   1.246       .  A
C1411      C2664   1.470       .  S
O1412     Cr1428   1.927       .  S
O1413     Cr1428   1.967       .  S
O1413      C1414   1.253       .  A
C1414      O1415   1.268       .  A
C1414      C2627   1.486       .  S
O1415     Cr1429   2.019       .  S
O1416     Cr1429   2.034       .  S
O1416      C1417   1.273       .  A
C1417      C2634   1.526       .  S
O1418     Cr1427   2.037       .  S
O1418      C1426   1.274       .  A
O1419     Cr1427   1.989       .  S
O1419      C1420   1.256       .  A
C1420      O1421   1.253       .  A
C1420      C2657   1.452       .  S
O1421     Cr1428   1.966       .  S
O1422     Cr1428   1.945       .  S
O1422      C1423   1.254       .  A
C1423      O1424   1.272       .  A
C1423      C2674   1.464       .  S
O1424     Cr1429   2.037       .  S
O1425     Cr1429   2.002       .  S
O1425      C1426   1.267       .  A
C1426      C2644   1.527       .  S
Cr1427     O1430   1.780       .  S
Cr1428     O1430   1.750       .  S
Cr1429     O1430   1.764       .  S
O1431     Cr1449   2.029       .  S
O1431      C1439   1.273       .  A
O1432     Cr1449   2.010       .  S
O1432      C1433   1.258       .  A
C1433      O1434   1.244       .  A
C1433      C2604   1.478       .  S
O1434     Cr1450   1.973       .  S
O1435     Cr1450   1.947       .  S
O1435      C1436   1.260       .  A
C1436      O1437   1.279       .  A
C1436      C2707   1.477       .  S
O1437     Cr1451   2.041       .  S
O1438     Cr1451   2.009       .  S
O1438      C1439   1.267       .  A
C1439      C2594   1.540       .  S
O1440     Cr1449   1.998       .  S
O1440      C1448   1.264       .  A
O1441     Cr1449   2.043       .  S
O1441      C1442   1.281       .  A
C1442      O1443   1.257       .  A
C1442      C2614   1.486       .  S
O1443     Cr1450   1.943       .  S
O1444     Cr1450   1.962       .  S
O1444      C1445   1.244       .  A
C1445      O1446   1.265       .  A
C1445      C2574   1.489       .  S
O1446     Cr1451   2.041       .  S
O1447     Cr1451   2.037       .  S
O1447      C1448   1.273       .  A
C1448      C2584   1.526       .  S
Cr1449     O1452   1.759       .  S
Cr1450     O1452   1.755       .  S
Cr1451     O1452   1.764       .  S
O1453     Cr1471   2.033       .  S
O1453      C1461   1.274       .  A
O1454     Cr1471   2.088       .  S
O1454      C1455   1.289       .  A
C1455      O1456   1.252       .  A
C1455      C2554   1.492       .  S
O1456     Cr1472   1.930       .  S
O1457     Cr1472   1.973       .  S
O1457      C1458   1.252       .  A
C1458      O1459   1.261       .  A
C1458      C4327   1.458       .  S
O1459     Cr1473   1.993       .  S
O1460     Cr1473   2.020       .  S
O1460      C1461   1.268       .  A
C1461      C4837   1.542       .  S
O1462     Cr1471   2.074       .  S
O1462      C1470   1.282       .  A
O1463     Cr1471   2.046       .  S
O1463      C1464   1.268       .  A
C1464      O1465   1.248       .  A
C1464      C2564   1.497       .  S
O1465     Cr1472   1.972       .  S
O1466     Cr1472   1.945       .  S
O1466      C1467   1.252       .  A
C1467      O1468   1.274       .  A
C1467      C2727   1.469       .  S
O1468     Cr1473   2.013       .  S
O1469     Cr1473   1.974       .  S
O1469      C1470   1.259       .  A
C1470      C2597   1.523       .  S
Cr1471     O1474   1.761       .  S
Cr1472     O1474   1.767       .  S
Cr1473     O1474   1.754       .  S
O1475     Cr1493   2.034       .  S
O1475      C1483   1.273       .  A
O1476     Cr1493   2.104       .  S
O1476      C1477   1.296       .  A
C1477      O1478   1.254       .  A
C1477      C2544   1.500       .  S
O1478     Cr1494   1.916       .  S
O1479     Cr1494   1.944       .  S
O1479      C1480   1.239       .  A
C1480      O1481   1.258       .  A
C1480      C2697   1.456       .  S
O1481     Cr1495   1.997       .  S
O1482     Cr1495   2.001       .  S
O1482      C1483   1.263       .  A
C1483      C2647   1.541       .  S
O1484     Cr1493   2.053       .  S
O1484      C1492   1.279       .  A
O1485     Cr1493   2.044       .  S
O1485      C1486   1.260       .  A
C1486      O1487   1.235       .  A
C1486      C2534   1.511       .  S
O1487     Cr1494   1.968       .  S
O1488     Cr1494   1.947       .  S
O1488      C1489   1.265       .  A
C1489      O1490   1.278       .  A
C1489      C4427   1.478       .  S
O1490     Cr1495   2.036       .  S
O1491     Cr1495   1.991       .  S
O1491      C1492   1.265       .  A
C1492      C4777   1.536       .  S
Cr1493     O1496   1.764       .  S
Cr1494     O1496   1.777       .  S
Cr1495     O1496   1.764       .  S
O1497     Cr1515   2.025       .  S
O1497      C1505   1.280       .  A
O1498     Cr1515   2.074       .  S
O1498      C1499   1.283       .  A
C1499      O1500   1.254       .  A
C1499      C2547   1.486       .  S
O1500     Cr1516   1.944       .  S
O1501     Cr1516   1.961       .  S
O1501      C1502   1.252       .  A
C1502      O1503   1.262       .  A
C1502      C2654   1.461       .  S
O1503     Cr1517   1.996       .  S
O1504     Cr1517   2.030       .  S
O1504      C1505   1.261       .  A
C1505      C2687   1.538       .  S
O1506     Cr1515   2.056       .  S
O1506      C1514   1.276       .  A
O1507     Cr1515   2.035       .  S
O1507      C1508   1.265       .  A
C1508      O1509   1.251       .  A
C1508      C2567   1.489       .  S
O1509     Cr1516   1.977       .  S
O1510     Cr1516   1.959       .  S
O1510      C1511   1.259       .  A
C1511      O1512   1.273       .  A
C1511      C2607   1.472       .  S
O1512     Cr1517   2.018       .  S
O1513     Cr1517   1.986       .  S
O1513      C1514   1.261       .  A
C1514      C2714   1.530       .  S
Cr1515     O1518   1.767       .  S
Cr1516     O1518   1.779       .  S
Cr1517     O1518   1.765       .  S
O1519     Cr1537   2.071       .  S
O1519      C1527   1.282       .  A
O1520     Cr1537   2.042       .  S
O1520      C1521   1.274       .  A
C1521      O1522   1.252       .  A
C1521      C2514   1.511       .  S
O1522     Cr1538   1.987       .  S
O1523     Cr1538   1.942       .  S
O1523      C1524   1.254       .  A
C1524      O1525   1.268       .  A
C1524      C2504   1.450       .  S
O1525     Cr1539   2.009       .  S
O1526     Cr1539   1.982       .  S
O1526      C1527   1.262       .  A
C1527      C3387   1.527       .  S
O1528     Cr1537   2.041       .  S
O1528      C1536   1.274       .  A
O1529     Cr1537   2.076       .  S
O1529      C1530   1.281       .  A
C1530      O1531   1.246       .  A
C1530      C2527   1.491       .  S
O1531     Cr1538   1.925       .  S
O1532     Cr1538   1.964       .  S
O1532      C1533   1.253       .  A
C1533      O1534   1.263       .  A
C1533      C2497   1.459       .  S
O1534     Cr1539   2.003       .  S
O1535     Cr1539   2.001       .  S
O1535      C1536   1.260       .  A
C1536      C3217   1.534       .  S
Cr1537     O1540   1.759       .  S
Cr1538     O1540   1.758       .  S
Cr1539     O1540   1.761       .  S
O1541     Cr1559   2.036       .  S
O1541      C1549   1.273       .  A
O1542     Cr1559   2.070       .  S
O1542      C1543   1.282       .  A
C1543      O1544   1.251       .  A
C1543      C2557   1.491       .  S
O1544     Cr1560   1.936       .  S
O1545     Cr1560   1.960       .  S
O1545      C1546   1.250       .  A
C1546      O1547   1.257       .  A
C1546      C4867   1.447       .  S
O1547     Cr1561   1.989       .  S
O1548     Cr1561   2.017       .  S
O1548      C1549   1.267       .  A
C1549      C4294   1.537       .  S
O1550     Cr1559   2.074       .  S
O1550      C1558   1.281       .  A
O1551     Cr1559   2.042       .  S
O1551      C1552   1.274       .  A
C1552      O1553   1.247       .  A
C1552      C2524   1.509       .  S
O1553     Cr1560   1.978       .  S
O1554     Cr1560   1.949       .  S
O1554      C1555   1.257       .  A
C1555      O1556   1.271       .  A
C1555      C3247   1.454       .  S
O1556     Cr1561   2.013       .  S
O1557     Cr1561   1.962       .  S
O1557      C1558   1.255       .  A
C1558      C2484   1.526       .  S
Cr1559     O1562   1.758       .  S
Cr1560     O1562   1.760       .  S
Cr1561     O1562   1.758       .  S
O1563     Cr1581   2.037       .  S
O1563      C1571   1.276       .  A
O1564     Cr1581   2.083       .  S
O1564      C1565   1.284       .  A
C1565      O1566   1.249       .  A
C1565      C2517   1.495       .  S
O1566     Cr1582   1.936       .  S
O1567     Cr1582   1.973       .  S
O1567      C1568   1.254       .  A
C1568      O1569   1.258       .  A
C1568      C3417   1.458       .  S
O1569     Cr1583   1.978       .  S
O1570     Cr1583   2.032       .  S
O1570      C1571   1.271       .  A
C1571      C2474   1.543       .  S
O1572     Cr1581   2.067       .  S
O1572      C1580   1.280       .  A
O1573     Cr1581   2.053       .  S
O1573      C1574   1.275       .  A
C1574      O1575   1.249       .  A
C1574      C2537   1.519       .  S
O1575     Cr1582   1.981       .  S
O1576     Cr1582   1.953       .  S
O1576      C1577   1.255       .  A
C1577      O1578   1.274       .  A
C1577      C4807   1.488       .  S
O1578     Cr1583   2.035       .  S
O1579     Cr1583   1.969       .  S
O1579      C1580   1.258       .  A
C1580      C4397   1.519       .  S
Cr1581     O1584   1.758       .  S
Cr1582     O1584   1.761       .  S
Cr1583     O1584   1.757       .  S
O1585     Cr1603   2.040       .  S
O1585      C1593   1.273       .  A
O1586     Cr1603   1.975       .  S
O1586      C1587   1.248       .  A
C1587      O1588   1.255       .  A
C1587      C2467   1.456       .  S
O1588     Cr1604   1.982       .  S
O1589     Cr1604   1.952       .  S
O1589      C1590   1.259       .  A
C1590      O1591   1.278       .  A
C1590      C2884   1.480       .  S
O1591     Cr1605   2.031       .  S
O1592     Cr1605   2.009       .  S
O1592      C1593   1.265       .  A
C1593      C2454   1.539       .  S
O1594     Cr1603   1.972   1_556  S
O1594      C1602   1.257       .  A
O1595     Cr1603   2.049   1_556  S
O1595      C1596   1.278       .  A
C1596      O1597   1.251       .  A
C1596      C3507   1.468       .  S
O1597     Cr1604   1.933   1_556  S
O1598     Cr1604   1.971   1_556  S
O1598      C1599   1.251       .  A
C1599      O1600   1.262       .  A
C1599      C3924   1.463       .  S
O1600     Cr1605   1.991   1_556  S
O1601     Cr1605   2.060   1_556  S
O1601      C1602   1.280       .  A
C1602      C3464   1.531       .  S
Cr1603     O1606   1.775       .  S
Cr1604     O1606   1.770       .  S
Cr1605     O1606   1.755       .  S
O1607     Cr1625   2.007   1_455  S
O1607      C1615   1.268       .  A
O1608     Cr1625   2.059   1_455  S
O1608      C1609   1.282       .  A
C1609      O1610   1.259       .  A
C1609      C2444   1.470       .  S
O1610     Cr1626   1.929   1_455  S
O1611     Cr1626   1.965       .  S
O1611      C1612   1.243   1_655  A
C1612      O1613   1.266       .  A
C1612      C2624   1.507       .  S
O1613     Cr1627   2.026   1_455  S
O1614     Cr1627   2.048   1_455  S
O1614      C1615   1.278       .  A
C1615      C2434   1.526       .  S
O1616     Cr1625   2.036       .  S
O1616      C1624   1.274       .  A
O1617     Cr1625   2.032       .  S
O1617      C1618   1.261       .  A
C1618      O1619   1.232       .  A
C1618      C2767   1.475       .  S
O1619     Cr1626   1.956       .  S
O1620     Cr1626   1.955       .  S
O1620      C1621   1.253       .  A
C1621      O1622   1.278       .  A
C1621      C3144   1.478       .  S
O1622     Cr1627   2.053       .  S
O1623     Cr1627   2.015       .  S
O1623      C1624   1.268       .  A
C1624      C2737   1.549       .  S
Cr1625     O1628   1.766       .  S
Cr1626     O1628   1.743       .  S
Cr1627     O1628   1.762       .  S
O1629     Cr1647   2.047   1_565  S
O1629      C1637   1.277       .  A
O1630     Cr1647   2.040   1_565  S
O1630      C1631   1.265       .  A
C1631      O1632   1.240       .  A
C1631      C3377   1.474       .  S
O1632     Cr1648   1.947   1_565  S
O1633     Cr1648   1.930   1_565  S
O1633      C1634   1.243       .  A
C1634      O1635   1.277       .  A
C1634      C2507   1.470       .  S
O1635     Cr1649   2.054   1_565  S
O1636     Cr1649   1.992   1_565  S
O1636      C1637   1.262       .  A
C1637      C2477   1.539       .  S
O1638     Cr1647   2.006       .  S
O1638      C1646   1.265       .  A
O1639     Cr1647   2.043       .  S
O1639      C1640   1.282       .  A
C1640      O1641   1.265       .  A
C1640      C3634   1.468       .  S
O1641     Cr1648   1.941       .  S
O1642     Cr1648   1.980       .  S
O1642      C1643   1.244       .  A
C1643      O1644   1.258       .  A
C1643      C2424   1.486       .  S
O1644     Cr1649   2.002       .  S
O1645     Cr1649   2.034       .  S
O1645      C1646   1.276       .  A
C1646      C2414   1.519       .  S
Cr1647     O1650   1.760       .  S
Cr1648     O1650   1.736       .  S
Cr1649     O1650   1.775       .  S
O1651     Cr1669   2.027   1_556  S
O1651      C1659   1.268       .  A
O1652     Cr1669   2.008   1_556  S
O1652      C1653   1.259       .  A
C1653      O1654   1.240       .  A
C1653      C3497   1.487       .  S
O1654     Cr1670   1.963   1_556  S
O1655     Cr1670   1.963   1_556  S
O1655      C1656   1.265       .  A
C1656      O1657   1.277       .  A
C1656      C3437   1.480       .  S
O1657     Cr1671   2.030   1_556  S
O1658     Cr1671   2.010   1_556  S
O1658      C1659   1.263       .  A
C1659      C3477   1.519       .  S
O1660     Cr1669   1.990       .  S
O1660      C1668   1.262       .  A
O1661     Cr1669   2.035       .  S
O1661      C1662   1.273       .  A
C1662      O1663   1.256       .  A
C1662      C2407   1.452       .  S
O1663     Cr1670   1.940       .  S
O1664     Cr1670   1.950       .  S
O1664      C1665   1.247       .  A
C1665      O1666   1.265       .  A
C1665      C2577   1.468       .  S
O1666     Cr1671   2.018       .  S
O1667     Cr1671   2.050       .  S
O1667      C1668   1.280       .  A
C1668      C2394   1.543       .  S
Cr1669     O1672   1.783       .  S
Cr1670     O1672   1.756       .  S
Cr1671     O1672   1.760       .  S
O1673     Cr1691   1.991       .  S
O1673      C1681   1.265       .  A
O1674     Cr1691   2.048       .  S
O1674      C1675   1.280       .  A
C1675      O1676   1.250       .  A
C1675      C2834   1.470       .  S
O1676     Cr1692   1.935       .  S
O1677     Cr1692   1.952       .  S
O1677      C1678   1.241       .  A
C1678      O1679   1.251       .  A
C1678      C2384   1.457       .  S
O1679     Cr1693   2.007       .  S
O1680     Cr1693   2.040       .  S
O1680      C1681   1.276       .  A
C1681      C2374   1.532       .  S
O1682     Cr1691   2.044   1_565  S
O1682      C1690   1.275       .  A
O1683     Cr1691   2.028   1_565  S
O1683      C1684   1.267       .  A
C1684      O1685   1.247       .  A
C1684      C3207   1.480       .  S
O1685     Cr1692   1.961   1_565  S
O1686     Cr1692   1.919   1_565  S
O1686      C1687   1.254       .  A
C1687      O1688   1.285       .  A
C1687      C2494   1.461       .  S
O1688     Cr1693   2.068   1_565  S
O1689     Cr1693   1.987   1_565  S
O1689      C1690   1.261       .  A
C1690      C2487   1.530       .  S
Cr1691     O1694   1.761       .  S
Cr1692     O1694   1.745       .  S
Cr1693     O1694   1.763       .  S
O1695     Cr1713   2.034       .  S
O1695      C1703   1.273       .  A
O1696     Cr1713   2.002       .  S
O1696      C1697   1.259       .  A
C1697      O1698   1.255       .  A
C1697      C2757   1.465       .  S
O1698     Cr1714   1.986       .  S
O1699     Cr1714   1.920       .  S
O1699      C1700   1.257       .  A
C1700      O1701   1.282       .  A
C1700      C3984   1.466       .  S
O1701     Cr1715   2.051       .  S
O1702     Cr1715   1.979       .  S
O1702      C1703   1.262       .  A
C1703      C2747   1.514       .  S
O1704     Cr1713   1.987   1_455  S
O1704      C1712   1.261       .  A
O1705     Cr1713   2.051   1_455  S
O1705      C1706   1.274       .  A
C1706      O1707   1.244       .  A
C1706      C2364   1.469       .  S
O1707     Cr1714   1.923   1_455  S
O1708     Cr1714   1.958       .  S
O1708      C1709   1.244   1_655  A
C1709      O1710   1.257       .  A
C1709      C3584   1.460       .  S
O1710     Cr1715   2.007   1_455  S
O1711     Cr1715   2.040   1_455  S
O1711      C1712   1.276       .  A
C1712      C2354   1.532       .  S
Cr1713     O1716   1.772       .  S
Cr1714     O1716   1.740       .  S
Cr1715     O1716   1.758       .  S
O1717     Cr1735   2.038       .  S
O1717      C1725   1.277       .  A
O1718     Cr1735   2.079       .  S
O1718      C1719   1.282       .  A
C1719      O1720   1.242       .  A
C1719      C2344   1.487       .  S
O1720     Cr1736   1.918       .  S
O1721     Cr1736   1.949       .  S
O1721      C1722   1.249       .  A
C1722      O1723   1.257       .  A
C1722      C2404   1.449       .  S
O1723     Cr1737   1.998       .  S
O1724     Cr1737   2.018       .  S
O1724      C1725   1.268       .  A
C1725      C2587   1.529       .  S
O1726     Cr1735   2.050       .  S
O1726      C1734   1.278       .  A
O1727     Cr1735   2.041       .  S
O1727      C1728   1.272       .  A
C1728      O1729   1.248       .  A
C1728      C2337   1.507       .  S
O1729     Cr1736   1.981       .  S
O1730     Cr1736   1.942       .  S
O1730      C1731   1.249       .  A
C1731      O1732   1.274       .  A
C1731      C2464   1.461       .  S
O1732     Cr1737   2.044       .  S
O1733     Cr1737   1.984       .  S
O1733      C1734   1.264       .  A
C1734      C2897   1.510       .  S
Cr1735     O1738   1.756       .  S
Cr1736     O1738   1.754       .  S
Cr1737     O1738   1.762       .  S
O1739     Cr1757   2.012       .  S
O1739      C1747   1.271       .  A
O1740     Cr1757   2.107       .  S
O1740      C1741   1.291       .  A
C1741      O1742   1.249       .  A
C1741      C2314   1.509       .  S
O1742     Cr1758   1.935       .  S
O1743     Cr1758   1.959       .  S
O1743      C1744   1.247       .  A
C1744      O1745   1.262       .  A
C1744      C2387   1.468       .  S
O1745     Cr1759   2.019       .  S
O1746     Cr1759   2.022       .  S
O1746      C1747   1.269       .  A
C1747      C2847   1.513       .  S
O1748     Cr1757   2.070       .  S
O1748      C1756   1.283       .  A
O1749     Cr1757   2.036       .  S
O1749      C1750   1.268       .  A
C1750      O1751   1.245       .  A
C1750      C2324   1.512       .  S
O1751     Cr1758   1.980       .  S
O1752     Cr1758   1.954       .  S
O1752      C1753   1.260       .  A
C1753      O1754   1.280       .  A
C1753      C2427   1.471       .  S
O1754     Cr1759   2.026       .  S
O1755     Cr1759   1.988       .  S
O1755      C1756   1.262       .  A
C1756      C3647   1.540       .  S
Cr1757     O1760   1.764       .  S
Cr1758     O1760   1.760       .  S
Cr1759     O1760   1.763       .  S
O1761     Cr1779   2.060       .  S
O1761      C1769   1.279       .  A
O1762     Cr1779   2.048       .  S
O1762      C1763   1.269       .  A
C1763      O1764   1.244       .  A
C1763      C2307   1.514       .  S
O1764     Cr1780   1.974       .  S
O1765     Cr1780   1.966       .  S
O1765      C1766   1.263       .  A
C1766      O1767   1.271       .  A
C1766      C2367   1.461       .  S
O1767     Cr1781   2.003       .  S
O1768     Cr1781   1.988       .  S
O1768      C1769   1.262       .  A
C1769      C3597   1.533       .  S
O1770     Cr1779   2.026       .  S
O1770      C1778   1.270       .  A
O1771     Cr1779   2.073       .  S
O1771      C1772   1.285       .  A
C1772      O1773   1.256       .  A
C1772      C2294   1.481       .  S
O1773     Cr1780   1.937       .  S
O1774     Cr1780   1.969       .  S
O1774      C1775   1.249       .  A
C1775      O1776   1.264       .  A
C1775      C2447   1.473       .  S
O1776     Cr1781   1.999       .  S
O1777     Cr1781   2.011       .  S
O1777      C1778   1.265       .  A
C1778      C2637   1.535       .  S
Cr1779     O1782   1.765       .  S
Cr1780     O1782   1.776       .  S
Cr1781     O1782   1.758       .  S
O1783     Cr1801   2.059       .  S
O1783      C1791   1.277       .  A
O1784     Cr1801   2.030       .  S
O1784      C1785   1.272       .  A
C1785      O1786   1.255       .  A
C1785      C2304   1.509       .  S
O1786     Cr1802   1.997       .  S
O1787     Cr1802   1.923       .  S
O1787      C1788   1.249       .  A
C1788      O1789   1.273       .  A
C1788      C3627   1.456       .  S
O1789     Cr1803   2.030       .  S
O1790     Cr1803   1.988       .  S
O1790      C1791   1.260       .  A
C1791      C2357   1.531       .  S
O1792     Cr1801   2.013       .  S
O1792      C1800   1.274       .  A
O1793     Cr1801   2.084       .  S
O1793      C1794   1.281       .  A
C1794      O1795   1.246       .  A
C1794      C2327   1.497       .  S
O1795     Cr1802   1.932       .  S
O1796     Cr1802   1.974       .  S
O1796      C1797   1.255       .  A
C1797      O1798   1.260       .  A
C1797      C3674   1.473       .  S
O1798     Cr1803   2.003       .  S
O1799     Cr1803   2.025       .  S
O1799      C1800   1.272       .  A
C1800      C2417   1.511       .  S
Cr1801     O1804   1.764       .  S
Cr1802     O1804   1.755       .  S
Cr1803     O1804   1.767       .  S
O1805     Cr1823   2.069       .  S
O1805      C1813   1.281       .  A
O1806     Cr1823   2.048       .  S
O1806      C1807   1.263       .  A
C1807      O1808   1.232       .  A
C1807      C2347   1.503       .  S
O1808     Cr1824   1.961       .  S
O1809     Cr1824   1.963       .  S
O1809      C1810   1.265       .  A
C1810      O1811   1.279       .  A
C1810      C2617   1.469       .  S
O1811     Cr1825   2.027       .  S
O1812     Cr1825   1.979       .  S
O1812      C1813   1.260       .  A
C1813      C2397   1.544       .  S
O1814     Cr1823   2.022       .  S
O1814      C1822   1.271       .  A
O1815     Cr1823   2.102       .  S
O1815      C1816   1.297       .  A
C1816      O1817   1.260       .  A
C1816      C2297   1.502       .  S
O1817     Cr1824   1.932       .  S
O1818     Cr1824   1.972       .  S
O1818      C1819   1.245       .  A
C1819      O1820   1.263       .  A
C1819      C2667   1.477       .  S
O1820     Cr1825   2.009       .  S
O1821     Cr1825   2.022       .  S
O1821      C1822   1.269       .  A
C1822      C2437   1.518       .  S
Cr1823     O1826   1.767       .  S
Cr1824     O1826   1.776       .  S
Cr1825     O1826   1.762       .  S
O1827     Cr1845   2.031       .  S
O1827      C1835   1.273       .  A
O1828     Cr1845   2.092       .  S
O1828      C1829   1.288       .  A
C1829      O1830   1.251       .  A
C1829      C2317   1.498       .  S
O1830     Cr1846   1.934       .  S
O1831     Cr1846   1.966       .  S
O1831      C1832   1.255       .  A
C1832      O1833   1.264       .  A
C1832      C2874   1.474       .  S
O1833     Cr1847   2.004       .  S
O1834     Cr1847   2.022       .  S
O1834      C1835   1.269       .  A
C1835      C2377   1.543       .  S
O1836     Cr1845   2.073       .  S
O1836      C1844   1.281       .  A
O1837     Cr1845   2.038       .  S
O1837      C1838   1.269       .  A
C1838      O1839   1.247       .  A
C1838      C2334   1.509       .  S
O1839     Cr1846   1.977       .  S
O1840     Cr1846   1.938       .  S
O1840      C1841   1.251       .  A
C1841      O1842   1.271       .  A
C1841      C2927   1.458       .  S
O1842     Cr1847   2.032       .  S
O1843     Cr1847   1.996       .  S
O1843      C1844   1.263       .  A
C1844      C2457   1.543       .  S
Cr1845     O1848   1.759       .  S
Cr1846     O1848   1.764       .  S
Cr1847     O1848   1.766       .  S
O1849     Cr1867   1.988       .  S
O1849      C1857   1.262       .  A
O1850     Cr1867   2.039       .  S
O1850      C1851   1.276       .  A
C1851      O1852   1.257       .  A
C1851      C2284   1.466       .  S
O1852     Cr1868   1.942       .  S
O1853     Cr1868   1.980       .  S
O1853      C1854   1.255       .  A
C1854      O1855   1.270       .  A
C1854      C4087   1.491       .  S
O1855     Cr1869   2.021       .  S
O1856     Cr1869   2.052       .  S
O1856      C1857   1.278       .  A
C1857      C2274   1.533       .  S
O1858     Cr1867   2.021       .  S
O1858      C1866   1.269       .  A
O1859     Cr1867   1.999       .  S
O1859      C1860   1.254       .  A
C1860      O1861   1.249       .  A
C1860      C3057   1.458       .  S
O1861     Cr1868   1.957       .  S
O1862     Cr1868   1.951       .  S
O1862      C1863   1.249       .  A
C1863      O1864   1.275       .  A
C1863      C4387   1.480       .  S
O1864     Cr1869   2.043       .  S
O1865     Cr1869   1.999       .  S
O1865      C1866   1.265       .  A
C1866      C3017   1.526       .  S
Cr1867     O1870   1.768       .  S
Cr1868     O1870   1.744       .  S
Cr1869     O1870   1.762       .  S
O1871     Cr1889   1.997       .  S
O1871      C1879   1.263       .  A
O1872     Cr1889   2.047       .  S
O1872      C1873   1.278       .  A
C1873      O1874   1.248       .  A
C1873      C2264   1.467       .  S
O1874     Cr1890   1.924       .  S
O1875     Cr1890   1.956       .  S
O1875      C1876   1.240       .  A
C1876      O1877   1.253       .  A
C1876      C4187   1.462       .  S
O1877     Cr1891   2.018       .  S
O1878     Cr1891   2.046       .  S
O1878      C1879   1.276       .  A
C1879      C2254   1.542       .  S
O1880     Cr1889   2.054       .  S
O1880      C1888   1.281       .  A
O1881     Cr1889   1.988       .  S
O1881      C1882   1.259       .  A
C1882      O1883   1.247       .  A
C1882      C3347   1.488       .  S
O1883     Cr1890   1.987       .  S
O1884     Cr1890   1.935       .  S
O1884      C1885   1.257       .  A
C1885      O1886   1.288       .  A
C1885      C4487   1.471       .  S
O1886     Cr1891   2.072       .  S
O1887     Cr1891   2.001       .  S
O1887      C1888   1.265       .  A
C1888      C3267   1.528       .  S
Cr1889     O1892   1.767       .  S
Cr1890     O1892   1.749       .  S
Cr1891     O1892   1.770       .  S
O1893     Cr1911   2.027       .  S
O1893      C1901   1.268       .  A
O1894     Cr1911   2.035       .  S
O1894      C1895   1.271       .  A
C1895      O1896   1.252       .  A
C1895      C4337   1.476       .  S
O1896     Cr1912   1.934       .  S
O1897     Cr1912   1.979       .  S
O1897      C1898   1.258       .  A
C1898      O1899   1.252       .  A
C1898      C2244   1.453       .  S
O1899     Cr1913   1.975       .  S
O1900     Cr1913   2.023       .  S
O1900      C1901   1.269       .  A
C1901      C2234   1.540       .  S
O1902     Cr1911   2.047       .  S
O1902      C1910   1.278       .  A
O1903     Cr1911   2.014       .  S
O1903      C1904   1.267       .  A
C1904      O1905   1.251       .  A
C1904      C4037   1.466       .  S
O1905     Cr1912   1.949       .  S
O1906     Cr1912   1.929       .  S
O1906      C1907   1.246       .  A
C1907      O1908   1.270       .  A
C1907      C3047   1.473       .  S
O1908     Cr1913   2.054       .  S
O1909     Cr1913   1.994       .  S
O1909      C1910   1.268       .  A
C1910      C3097   1.528       .  S
Cr1911     O1914   1.773       .  S
Cr1912     O1914   1.759       .  S
Cr1913     O1914   1.785       .  S
O1915     Cr1933   1.989       .  S
O1915      C1923   1.265       .  A
O1916     Cr1933   2.048       .  S
O1916      C1917   1.272       .  A
C1917      O1918   1.249       .  A
C1917      C3837   1.476       .  S
O1918     Cr1934   1.940       .  S
O1919     Cr1934   1.961       .  S
O1919      C1920   1.251       .  A
C1920      O1921   1.257       .  A
C1920      C4137   1.451       .  S
O1921     Cr1935   1.983       .  S
O1922     Cr1935   2.056       .  S
O1922      C1923   1.283       .  A
C1923      C3877   1.540       .  S
O1924     Cr1933   2.032       .  S
O1924      C1932   1.270       .  A
O1925     Cr1933   1.984       .  S
O1925      C1926   1.261       .  A
C1926      O1927   1.254       .  A
C1926      C2224   1.469       .  S
O1927     Cr1934   1.988       .  S
O1928     Cr1934   1.924       .  S
O1928      C1929   1.249       .  A
C1929      O1930   1.278       .  A
C1929      C4437   1.477       .  S
O1930     Cr1935   2.058       .  S
O1931     Cr1935   2.006       .  S
O1931      C1932   1.264       .  A
C1932      C2214   1.525       .  S
Cr1933     O1936   1.783       .  S
Cr1934     O1936   1.752       .  S
Cr1935     O1936   1.770       .  S
O1937     Cr1955   1.982       .  S
O1937      C1945   1.262       .  A
O1938     Cr1955   2.044       .  S
O1938      C1939   1.277       .  A
C1939      O1940   1.249       .  A
C1939      C4587   1.459       .  S
O1940     Cr1956   1.928       .  S
O1941     Cr1956   1.970       .  S
O1941      C1942   1.247       .  A
C1942      O1943   1.261       .  A
C1942      C2204   1.473       .  S
O1943     Cr1957   2.020       .  S
O1944     Cr1957   2.032       .  S
O1944      C1945   1.273       .  A
C1945      C2194   1.517       .  S
O1946     Cr1955   2.036       .  S
O1946      C1954   1.273       .  A
O1947     Cr1955   2.014       .  S
O1947      C1948   1.265       .  A
C1948      O1949   1.255       .  A
C1948      C4287   1.492       .  S
O1949     Cr1956   1.990       .  S
O1950     Cr1956   1.919       .  S
O1950      C1951   1.250       .  A
C1951      O1952   1.277       .  A
C1951      C3337   1.453       .  S
O1952     Cr1957   2.045       .  S
O1953     Cr1957   2.001       .  S
O1953      C1954   1.265       .  A
C1954      C3307   1.533       .  S
Cr1955     O1958   1.762       .  S
Cr1956     O1958   1.745       .  S
Cr1957     O1958   1.765       .  S
O1959     Cr1977   2.033       .  S
O1959      C1967   1.273       .  A
O1960     Cr1977   1.982       .  S
O1960      C1961   1.251       .  A
C1961      O1962   1.250       .  A
C1961      C2184   1.454       .  S
O1962     Cr1978   1.965       .  S
O1963     Cr1978   1.955       .  S
O1963      C1964   1.260       .  A
C1964      O1965   1.275       .  A
C1964      C4237   1.478       .  S
O1965     Cr1979   2.033       .  S
O1966     Cr1979   1.976       .  S
O1966      C1967   1.262       .  A
C1967      C2174   1.528       .  S
O1968     Cr1977   1.972       .  S
O1968      C1976   1.253       .  A
O1969     Cr1977   2.042       .  S
O1969      C1970   1.280       .  A
C1970      O1971   1.258       .  A
C1970      C3824   1.468       .  S
O1971     Cr1978   1.937       .  S
O1972     Cr1978   1.981       .  S
O1972      C1973   1.244       .  A
C1973      O1974   1.265       .  A
C1973      C4537   1.486       .  S
O1974     Cr1979   2.002       .  S
O1975     Cr1979   2.037       .  S
O1975      C1976   1.272       .  A
C1976      C3797   1.501       .  S
Cr1977     O1980   1.773       .  S
Cr1978     O1980   1.760       .  S
Cr1979     O1980   1.770       .  S
O1981     Cr1999   2.059       .  S
O1981      C1989   1.278       .  A
O1982     Cr1999   2.037       .  S
O1982      C1983   1.265       .  A
C1983      O1984   1.252       .  A
C1983      C2164   1.505       .  S
O1984     Cr2000   1.996       .  S
O1985     Cr2000   1.948       .  S
O1985      C1986   1.260       .  A
C1986      O1987   1.272       .  A
C1986      C2247   1.452       .  S
O1987     Cr2001   2.017       .  S
O1988     Cr2001   1.995       .  S
O1988      C1989   1.263       .  A
C1989      C4354   1.537       .  S
O1990     Cr1999   2.016       .  S
O1990      C1998   1.270       .  A
O1991     Cr1999   2.088       .  S
O1991      C1992   1.289       .  A
C1992      O1993   1.255       .  A
C1992      C2154   1.507       .  S
O1993     Cr2000   1.939       .  S
O1994     Cr2000   1.973       .  S
O1994      C1995   1.248       .  A
C1995      O1996   1.259       .  A
C1995      C2287   1.471       .  S
O1996     Cr2001   1.988       .  S
O1997     Cr2001   2.026       .  S
O1997      C1998   1.270       .  A
C1998      C4107   1.514       .  S
Cr1999     O2002   1.774       .  S
Cr2000     O2002   1.785       .  S
Cr2001     O2002   1.776       .  S
O2003     Cr2021   2.041       .  S
O2003      C2011   1.275       .  A
O2004     Cr2021   2.093       .  S
O2004      C2005   1.291       .  A
C2005      O2006   1.250       .  A
C2005      C2144   1.499       .  S
O2006     Cr2022   1.928       .  S
O2007     Cr2022   1.969       .  S
O2007      C2008   1.248       .  A
C2008      O2009   1.265       .  A
C2008      C2207   1.480       .  S
O2009     Cr2023   2.029       .  S
O2010     Cr2023   2.001       .  S
O2010      C2011   1.263       .  A
C2011      C4607   1.544       .  S
O2012     Cr2021   2.068       .  S
O2012      C2020   1.281       .  A
O2013     Cr2021   2.061       .  S
O2013      C2014   1.270       .  A
C2014      O2015   1.242       .  A
C2014      C2134   1.523       .  S
O2015     Cr2022   1.977       .  S
O2016     Cr2022   1.954       .  S
O2016      C2017   1.261       .  A
C2017      O2018   1.275       .  A
C2017      C2267   1.460       .  S
O2018     Cr2023   2.013       .  S
O2019     Cr2023   1.997       .  S
O2019      C2020   1.265       .  A
C2020      C4207   1.545       .  S
Cr2021     O2024   1.765       .  S
Cr2022     O2024   1.767       .  S
Cr2023     O2024   1.756       .  S
O2025     Cr2043   2.072       .  S
O2025      C2033   1.284       .  A
O2026     Cr2043   2.037       .  S
O2026      C2027   1.274       .  A
C2027      O2028   1.268       .  A
C2027      C4254   1.535       .  S
O2028     Cr2044   2.020       .  S
O2029     Cr2044   1.998       .  S
O2029      C2030   1.260       .  A
C2030      O2031   1.253       .  A
C2030      C2187   1.460       .  S
O2031     Cr2045   1.982       .  S
O2032     Cr2045   1.918       .  S
O2032      C2033   1.247       .  A
C2033      C2124   1.483       .  S
O2034     Cr2043   2.042       .  S
O2034      C2042   1.270       .  A
O2035     Cr2043   2.059       .  S
O2035      C2036   1.280       .  A
C2036      O2037   1.260       .  A
C2036      C4457   1.523       .  S
O2037     Cr2044   1.977       .  S
O2038     Cr2044   2.015       .  S
O2038      C2039   1.275       .  A
C2039      O2040   1.251       .  A
C2039      C2227   1.451       .  S
O2040     Cr2045   1.934       .  S
O2041     Cr2045   1.987       .  S
O2041      C2042   1.253       .  A
C2042      C2114   1.507       .  S
Cr2043     O2046   1.761       .  S
Cr2044     O2046   1.757       .  S
Cr2045     O2046   1.768       .  S
O2047     Cr2065   2.052       .  S
O2047      C2055   1.277       .  A
O2048     Cr2065   2.029       .  S
O2048      C2049   1.271       .  A
C2049      O2050   1.253       .  A
C2049      C2147   1.505       .  S
O2050     Cr2066   1.987       .  S
O2051     Cr2066   1.949       .  S
O2051      C2052   1.253       .  A
C2052      O2053   1.271       .  A
C2052      C4617   1.465       .  S
O2053     Cr2067   2.036       .  S
O2054     Cr2067   1.985       .  S
O2054      C2055   1.263       .  A
C2055      C2197   1.516       .  S
O2056     Cr2065   2.030       .  S
O2056      C2064   1.274       .  A
O2057     Cr2065   2.070       .  S
O2057      C2058   1.278       .  A
C2058      O2059   1.245       .  A
C2058      C2127   1.485       .  S
O2059     Cr2066   1.925       .  S
O2060     Cr2066   1.961       .  S
O2060      C2061   1.254       .  A
C2061      O2062   1.262       .  A
C2061      C4264   1.460       .  S
O2062     Cr2067   1.996       .  S
O2063     Cr2067   2.018       .  S
O2063      C2064   1.266       .  A
C2064      C2177   1.534       .  S
Cr2065     O2068   1.761       .  S
Cr2066     O2068   1.752       .  S
Cr2067     O2068   1.760       .  S
O2069     Cr2087   2.046       .  S
O2069      C2077   1.265       .  A
O2070     Cr2087   2.069       .  S
O2070      C2071   1.281       .  A
C2071      O2072   1.259       .  A
C2071      C2277   1.532       .  S
O2072     Cr2088   1.975       .  S
O2073     Cr2088   2.019       .  S
O2073      C2074   1.276       .  A
C2074      O2075   1.261       .  A
C2074      C4117   1.473       .  S
O2075     Cr2089   1.960       .  S
O2076     Cr2089   1.970       .  S
O2076      C2077   1.245       .  A
C2077      C2157   1.509       .  S
O2078     Cr2087   2.100       .  S
O2078      C2086   1.295       .  A
O2079     Cr2087   2.030       .  S
O2079      C2080   1.272       .  A
C2080      O2081   1.270       .  A
C2080      C2217   1.523       .  S
O2081     Cr2088   2.027       .  S
O2082     Cr2088   1.982       .  S
O2082      C2083   1.258       .  A
C2083      O2084   1.245       .  A
C2083      C4467   1.459       .  S
O2084     Cr2089   1.965       .  S
O2085     Cr2089   1.944       .  S
O2085      C2086   1.258       .  A
C2086      C2117   1.512       .  S
Cr2087     O2090   1.769       .  S
Cr2088     O2090   1.762       .  S
Cr2089     O2090   1.785       .  S
O2091     Cr2109   2.107       .  S
O2091      C2099   1.289       .  A
O2092     Cr2109   2.035       .  S
O2092      C2093   1.274       .  A
C2093      O2094   1.270       .  A
C2093      C2257   1.543       .  S
O2094     Cr2110   2.031       .  S
O2095     Cr2110   1.995       .  S
O2095      C2096   1.259       .  A
C2096      O2097   1.250       .  A
C2096      C4217   1.450       .  S
O2097     Cr2111   1.959       .  S
O2098     Cr2111   1.928       .  S
O2098      C2099   1.244       .  A
C2099      C2137   1.513       .  S
O2100     Cr2109   2.033       .  S
O2100      C2108   1.270       .  A
O2101     Cr2109   2.087       .  S
O2101      C2102   1.287       .  A
C2102      O2103   1.262       .  A
C2102      C2237   1.533       .  S
O2103     Cr2110   1.982       .  S
O2104     Cr2110   2.038       .  S
O2104      C2105   1.276       .  A
C2105      O2106   1.256       .  A
C2105      C4367   1.462       .  S
O2106     Cr2111   1.945       .  S
O2107     Cr2111   1.995       .  S
O2107      C2108   1.256       .  A
C2108      C2167   1.498       .  S
Cr2109     O2112   1.763       .  S
Cr2110     O2112   1.767       .  S
Cr2111     O2112   1.767       .  S
C2113      C2114   1.421       .  A
C2113      C2118   1.423       .  A
C2113     Br2120   1.929       .  S
C2114      C2115   1.412       .  A
C2115      C2116   1.416       .  A
C2115     Br2122   1.935       .  S
C2116      C2117   1.423       .  A
C2116     Br2121   1.925       .  S
C2117      C2118   1.412       .  A
C2118     Br2119   1.926       .  S
C2123      C2124   1.427       .  A
C2123      C2128   1.409       .  A
C2123     Br2130   1.939       .  S
C2124      C2125   1.402       .  A
C2125      C2126   1.405       .  A
C2125     Br2132   1.932       .  S
C2126      C2127   1.423       .  A
C2126     Br2131   1.935       .  S
C2127      C2128   1.403       .  A
C2128     Br2129   1.928       .  S
C2133      C2134   1.411       .  A
C2133      C2138   1.419       .  A
C2133     Br2140   1.931       .  S
C2134      C2135   1.436       .  A
C2135      C2136   1.420       .  A
C2135     Br2142   1.929       .  S
C2136      C2137   1.404       .  A
C2136     Br2141   1.930       .  S
C2137      C2138   1.429       .  A
C2138     Br2139   1.938       .  S
C2143      C2144   1.405       .  A
C2143      C2148   1.415       .  A
C2143     Br2150   1.929       .  S
C2144      C2145   1.427       .  A
C2145      C2146   1.411       .  A
C2145     Br2152   1.940       .  S
C2146      C2147   1.409       .  A
C2146     Br2151   1.934       .  S
C2147      C2148   1.432       .  A
C2148     Br2149   1.935       .  S
C2153      C2154   1.410       .  A
C2153      C2158   1.421       .  A
C2153     Br2160   1.924       .  S
C2154      C2155   1.418       .  A
C2155      C2156   1.415       .  A
C2155     Br2162   1.930       .  S
C2156      C2157   1.416       .  A
C2156     Br2161   1.934       .  S
C2157      C2158   1.424       .  A
C2158     Br2159   1.930       .  S
C2163      C2164   1.415       .  A
C2163      C2168   1.421       .  A
C2163     Br2170   1.921       .  S
C2164      C2165   1.409       .  A
C2165      C2166   1.412       .  A
C2165     Br2172   1.917       .  S
C2166      C2167   1.407       .  A
C2166     Br2171   1.917       .  S
C2167      C2168   1.414       .  A
C2168     Br2169   1.928       .  S
C2173      C2174   1.419       .  A
C2173      C2178   1.418       .  A
C2173     Br2180   1.940       .  S
C2174      C2175   1.423       .  A
C2175      C2176   1.429       .  A
C2175     Br2182   1.933       .  S
C2176      C2177   1.425       .  A
C2176     Br2181   1.930       .  S
C2177      C2178   1.430       .  A
C2178     Br2179   1.941       .  S
C2183      C2184   1.398       .  A
C2183      C2188   1.400       .  A
C2183     Br2190   1.924       .  S
C2184      C2185   1.407       .  A
C2185      C2186   1.402       .  A
C2185     Br2192   1.931       .  S
C2186      C2187   1.409       .  A
C2186     Br2191   1.930       .  S
C2187      C2188   1.409       .  A
C2188     Br2189   1.923       .  S
C2193      C2194   1.416       .  A
C2193      C2198   1.418       .  A
C2193     Br2200   1.934       .  S
C2194      C2195   1.419       .  A
C2195      C2196   1.422       .  A
C2195     Br2202   1.930       .  S
C2196      C2197   1.418       .  A
C2196     Br2201   1.926       .  S
C2197      C2198   1.421       .  A
C2198     Br2199   1.935       .  S
C2203      C2204   1.408       .  A
C2203      C2208   1.413       .  A
C2203     Br2210   1.929       .  S
C2204      C2205   1.409       .  A
C2205      C2206   1.406       .  A
C2205     Br2212   1.932       .  S
C2206      C2207   1.413       .  A
C2206     Br2211   1.935       .  S
C2207      C2208   1.414       .  A
C2208     Br2209   1.926       .  S
C2213      C2214   1.412       .  A
C2213      C2218   1.409       .  A
C2213     Br2220   1.923       .  S
C2214      C2215   1.420       .  A
C2215      C2216   1.437       .  A
C2215     Br2222   1.924       .  S
C2216      C2217   1.422       .  A
C2216     Br2221   1.924       .  S
C2217      C2218   1.411       .  A
C2218     Br2219   1.918       .  S
C2223      C2224   1.422       .  A
C2223      C2228   1.389       .  A
C2223     Br2230   1.927       .  S
C2224      C2225   1.412       .  A
C2225      C2226   1.404       .  A
C2225     Br2232   1.935       .  S
C2226      C2227   1.413       .  A
C2226     Br2231   1.936       .  S
C2227      C2228   1.394       .  A
C2228     Br2229   1.938       .  S
C2233      C2234   1.417       .  A
C2233      C2238   1.427       .  A
C2233     Br2240   1.932       .  S
C2234      C2235   1.428       .  A
C2235      C2236   1.431       .  A
C2235     Br2242   1.927       .  S
C2236      C2237   1.416       .  A
C2236     Br2241   1.929       .  S
C2237      C2238   1.425       .  A
C2238     Br2239   1.933       .  S
C2243      C2244   1.399       .  A
C2243      C2248   1.401       .  A
C2243     Br2250   1.930       .  S
C2244      C2245   1.404       .  A
C2245      C2246   1.392       .  A
C2245     Br2252   1.911       .  S
C2246      C2247   1.399       .  A
C2246     Br2251   1.930       .  S
C2247      C2248   1.415       .  A
C2248     Br2249   1.925       .  S
C2253      C2254   1.423       .  A
C2253      C2258   1.431       .  A
C2253     Br2260   1.932       .  S
C2254      C2255   1.423       .  A
C2255      C2256   1.429       .  A
C2255     Br2262   1.932       .  S
C2256      C2257   1.423       .  A
C2256     Br2261   1.932       .  S
C2257      C2258   1.431       .  A
C2258     Br2259   1.937       .  S
C2263      C2264   1.423       .  A
C2263      C2268   1.392       .  A
C2263     Br2270   1.944       .  S
C2264      C2265   1.406       .  A
C2265      C2266   1.402       .  A
C2265     Br2272   1.930       .  S
C2266      C2267   1.413       .  A
C2266     Br2271   1.925       .  S
C2267      C2268   1.401       .  A
C2268     Br2269   1.933       .  S
C2273      C2274   1.420       .  A
C2273      C2278   1.424       .  A
C2273     Br2280   1.932       .  S
C2274      C2275   1.425       .  A
C2275      C2276   1.425       .  A
C2275     Br2282   1.933       .  S
C2276      C2277   1.418       .  A
C2276     Br2281   1.928       .  S
C2277      C2278   1.427       .  A
C2278     Br2279   1.936       .  S
C2283      C2284   1.403       .  A
C2283      C2288   1.405       .  A
C2283     Br2290   1.922       .  S
C2284      C2285   1.412       .  A
C2285      C2286   1.400       .  A
C2285     Br2292   1.933       .  S
C2286      C2287   1.405       .  A
C2286     Br2291   1.932       .  S
C2287      C2288   1.417       .  A
C2288     Br2289   1.934       .  S
C2293      C2294   1.411       .  A
C2293      C2298   1.420       .  A
C2293     Br2300   1.929       .  S
C2294      C2295   1.402       .  A
C2295      C2296   1.407       .  A
C2295     Br2302   1.932       .  S
C2296      C2297   1.424       .  A
C2296     Br2301   1.934       .  S
C2297      C2298   1.419       .  A
C2298     Br2299   1.929       .  S
C2303      C2304   1.429       .  A
C2303      C2308   1.418       .  A
C2303     Br2310   1.934       .  S
C2304      C2305   1.407       .  A
C2305      C2306   1.414       .  A
C2305     Br2312   1.937       .  S
C2306      C2307   1.432       .  A
C2306     Br2311   1.935       .  S
C2307      C2308   1.410       .  A
C2308     Br2309   1.933       .  S
C2313      C2314   1.411       .  A
C2313      C2318   1.419       .  A
C2313     Br2320   1.928       .  S
C2314      C2315   1.431       .  A
C2315      C2316   1.410       .  A
C2315     Br2322   1.938       .  S
C2316      C2317   1.399       .  A
C2316     Br2321   1.921       .  S
C2317      C2318   1.422       .  A
C2318     Br2319   1.928       .  S
C2323      C2324   1.410       .  A
C2323      C2328   1.409       .  A
C2323     Br2330   1.927       .  S
C2324      C2325   1.434       .  A
C2325      C2326   1.417       .  A
C2325     Br2332   1.933       .  S
C2326      C2327   1.404       .  A
C2326     Br2331   1.931       .  S
C2327      C2328   1.422       .  A
C2328     Br2329   1.939       .  S
C2333      C2334   1.410       .  A
C2333      C2338   1.415       .  A
C2333     Br2340   1.933       .  S
C2334      C2335   1.431       .  A
C2335      C2336   1.412       .  A
C2335     Br2342   1.935       .  S
C2336      C2337   1.405       .  A
C2336     Br2341   1.933       .  S
C2337      C2338   1.431       .  A
C2338     Br2339   1.937       .  S
C2343      C2344   1.425       .  A
C2343      C2348   1.410       .  A
C2343     Br2350   1.936       .  S
C2344      C2345   1.398       .  A
C2345      C2346   1.410       .  A
C2345     Br2352   1.934       .  S
C2346      C2347   1.435       .  A
C2346     Br2351   1.935       .  S
C2347      C2348   1.409       .  A
C2348     Br2349   1.934       .  S
C2353      C2354   1.422       .  A
C2353      C2358   1.426       .  A
C2353     Br2360   1.935       .  S
C2354      C2355   1.425       .  A
C2355      C2356   1.423       .  A
C2355     Br2362   1.934       .  S
C2356      C2357   1.419       .  A
C2356     Br2361   1.932       .  S
C2357      C2358   1.428       .  A
C2358     Br2359   1.938       .  S
C2363      C2364   1.421       .  A
C2363      C2368   1.391       .  A
C2363     Br2370   1.945       .  S
C2364      C2365   1.408       .  A
C2365      C2366   1.406       .  A
C2365     Br2372   1.929       .  S
C2366      C2367   1.415       .  A
C2366     Br2371   1.927       .  S
C2367      C2368   1.401       .  A
C2368     Br2369   1.934       .  S
C2373      C2374   1.423       .  A
C2373      C2378   1.431       .  A
C2373     Br2380   1.931       .  S
C2374      C2375   1.416       .  A
C2375      C2376   1.422       .  A
C2375     Br2382   1.936       .  S
C2376      C2377   1.432       .  A
C2376     Br2381   1.938       .  S
C2377      C2378   1.428       .  A
C2378     Br2379   1.930       .  S
C2383      C2384   1.403       .  A
C2383      C2388   1.399       .  A
C2383     Br2390   1.931       .  S
C2384      C2385   1.408       .  A
C2385      C2386   1.408       .  A
C2385     Br2392   1.931       .  S
C2386      C2387   1.411       .  A
C2386     Br2391   1.921       .  S
C2387      C2388   1.412       .  A
C2388     Br2389   1.932       .  S
C2393      C2394   1.432       .  A
C2393      C2398   1.432       .  A
C2393     Br2400   1.936       .  S
C2394      C2395   1.423       .  A
C2395      C2396   1.426       .  A
C2395     Br2402   1.936       .  S
C2396      C2397   1.430       .  A
C2396     Br2401   1.940       .  S
C2397      C2398   1.421       .  A
C2398     Br2399   1.932       .  S
C2403      C2404   1.410       .  A
C2403      C2408   1.402       .  A
C2403     Br2410   1.927       .  S
C2404      C2405   1.404       .  A
C2405      C2406   1.398       .  A
C2405     Br2412   1.931       .  S
C2406      C2407   1.405       .  A
C2406     Br2411   1.926       .  S
C2407      C2408   1.403       .  A
C2408     Br2409   1.929       .  S
C2413      C2414   1.413       .  A
C2413      C2418   1.429       .  A
C2413     Br2420   1.923       .  S
C2414      C2415   1.419       .  A
C2415      C2416   1.414       .  A
C2415     Br2422   1.914       .  S
C2416      C2417   1.410       .  A
C2416     Br2421   1.935       .  S
C2417      C2418   1.421       .  A
C2418     Br2419   1.926       .  S
C2423      C2424   1.423       .  A
C2423      C2428   1.391       .  A
C2423     Br2430   1.931       .  S
C2424      C2425   1.416       .  A
C2425      C2426   1.411       .  A
C2425     Br2432   1.932       .  S
C2426      C2427   1.418       .  A
C2426     Br2431   1.932       .  S
C2427      C2428   1.397       .  A
C2428     Br2429   1.934       .  S
C2433      C2434   1.418       .  A
C2433      C2438   1.414       .  A
C2433     Br2440   1.913       .  S
C2434      C2435   1.417       .  A
C2435      C2436   1.433       .  A
C2435     Br2442   1.923       .  S
C2436      C2437   1.421       .  A
C2436     Br2441   1.925       .  S
C2437      C2438   1.407       .  A
C2438     Br2439   1.926       .  S
C2443      C2444   1.405       .  A
C2443      C2448   1.407       .  A
C2443     Br2450   1.934       .  S
C2444      C2445   1.416       .  A
C2445      C2446   1.395       .  A
C2445     Br2452   1.932       .  S
C2446      C2447   1.405       .  A
C2446     Br2451   1.935       .  S
C2447      C2448   1.424       .  A
C2448     Br2449   1.936       .  S
C2453      C2454   1.419       .  A
C2453      C2458   1.428       .  A
C2453     Br2460   1.934       .  S
C2454      C2455   1.425       .  A
C2455      C2456   1.431       .  A
C2455     Br2462   1.929       .  S
C2456      C2457   1.423       .  A
C2456     Br2461   1.927       .  S
C2457      C2458   1.428       .  A
C2458     Br2459   1.935       .  S
C2463      C2464   1.415       .  A
C2463      C2468   1.397       .  A
C2463     Br2470   1.920       .  S
C2464      C2465   1.402       .  A
C2465      C2466   1.402       .  A
C2465     Br2472   1.923       .  S
C2466      C2467   1.408       .  A
C2466     Br2471   1.924       .  S
C2467      C2468   1.396       .  A
C2468     Br2469   1.926       .  S
C2473      C2474   1.430       .  A
C2473      C2478   1.428       .  A
C2473     Br2480   1.930       .  S
C2474      C2475   1.422       .  A
C2475      C2476   1.430       .  A
C2475     Br2482   1.932       .  S
C2476      C2477   1.427       .  A
C2476     Br2481   1.934       .  S
C2477      C2478   1.422       .  A
C2478     Br2479   1.936       .  S
C2483      C2484   1.416       .  A
C2483      C2488   1.424       .  A
C2483     Br2490   1.928       .  S
C2484      C2485   1.425       .  A
C2485      C2486   1.420       .  A
C2485     Br2492   1.940       .  S
C2486      C2487   1.421       .  A
C2486     Br2491   1.933       .  S
C2487      C2488   1.427       .  A
C2488     Br2489   1.933       .  S
C2493      C2494   1.402       .  A
C2493      C2498   1.403       .  A
C2493     Br2500   1.927       .  S
C2494      C2495   1.417       .  A
C2495      C2496   1.400       .  A
C2495     Br2502   1.928       .  S
C2496      C2497   1.400       .  A
C2496     Br2501   1.932       .  S
C2497      C2498   1.411       .  A
C2498     Br2499   1.922       .  S
C2503      C2504   1.396       .  A
C2503      C2508   1.389       .  A
C2503     Br2510   1.934       .  S
C2504      C2505   1.409       .  A
C2505      C2506   1.402       .  A
C2505     Br2512   1.930       .  S
C2506      C2507   1.409       .  A
C2506     Br2511   1.930       .  S
C2507      C2508   1.428       .  A
C2508     Br2509   1.944       .  S
C2513      C2514   1.434       .  A
C2513      C2518   1.416       .  A
C2513     Br2520   1.924       .  S
C2514      C2515   1.410       .  A
C2515      C2516   1.414       .  A
C2515     Br2522   1.931       .  S
C2516      C2517   1.419       .  A
C2516     Br2521   1.927       .  S
C2517      C2518   1.400       .  A
C2518     Br2519   1.932       .  S
C2523      C2524   1.411       .  A
C2523      C2528   1.410       .  A
C2523     Br2530   1.931       .  S
C2524      C2525   1.438       .  A
C2525      C2526   1.415       .  A
C2525     Br2532   1.935       .  S
C2526      C2527   1.399       .  A
C2526     Br2531   1.931       .  S
C2527      C2528   1.420       .  A
C2528     Br2529   1.936       .  S
C2533      C2534   1.431       .  A
C2533      C2538   1.419       .  A
C2533     Br2540   1.940       .  S
C2534      C2535   1.408       .  A
C2535      C2536   1.417       .  A
C2535     Br2542   1.940       .  S
C2536      C2537   1.436       .  A
C2536     Br2541   1.939       .  S
C2537      C2538   1.413       .  A
C2538     Br2539   1.934       .  S
C2543      C2544   1.414       .  A
C2543      C2548   1.421       .  A
C2543     Br2550   1.926       .  S
C2544      C2545   1.423       .  A
C2545      C2546   1.406       .  A
C2545     Br2552   1.932       .  S
C2546      C2547   1.400       .  A
C2546     Br2551   1.928       .  S
C2547      C2548   1.416       .  A
C2548     Br2549   1.923       .  S
C2553      C2554   1.425       .  A
C2553      C2558   1.410       .  A
C2553     Br2560   1.935       .  S
C2554      C2555   1.404       .  A
C2555      C2556   1.410       .  A
C2555     Br2562   1.927       .  S
C2556      C2557   1.425       .  A
C2556     Br2561   1.935       .  S
C2557      C2558   1.405       .  A
C2558     Br2559   1.932       .  S
C2563      C2564   1.419       .  A
C2563      C2568   1.413       .  A
C2563     Br2570   1.931       .  S
C2564      C2565   1.416       .  A
C2565      C2566   1.415       .  A
C2565     Br2572   1.930       .  S
C2566      C2567   1.410       .  A
C2566     Br2571   1.925       .  S
C2567      C2568   1.406       .  A
C2568     Br2569   1.928       .  S
C2573      C2574   1.415       .  A
C2573      C2578   1.410       .  A
C2573     Br2580   1.928       .  S
C2574      C2575   1.421       .  A
C2575      C2576   1.407       .  A
C2575     Br2582   1.930       .  S
C2576      C2577   1.403       .  A
C2576     Br2581   1.932       .  S
C2577      C2578   1.405       .  A
C2578     Br2579   1.917       .  S
C2583      C2584   1.420       .  A
C2583      C2588   1.426       .  A
C2583     Br2590   1.930       .  S
C2584      C2585   1.419       .  A
C2585      C2586   1.423       .  A
C2585     Br2592   1.935       .  S
C2586      C2587   1.428       .  A
C2586     Br2591   1.936       .  S
C2587      C2588   1.418       .  A
C2588     Br2589   1.929       .  S
C2593      C2594   1.429       .  A
C2593      C2598   1.429       .  A
C2593     Br2600   1.925       .  S
C2594      C2595   1.424       .  A
C2595      C2596   1.424       .  A
C2595     Br2602   1.933       .  S
C2596      C2597   1.419       .  A
C2596     Br2601   1.936       .  S
C2597      C2598   1.413       .  A
C2598     Br2599   1.929       .  S
C2603      C2604   1.410       .  A
C2603      C2608   1.408       .  A
C2603     Br2610   1.928       .  S
C2604      C2605   1.421       .  A
C2605      C2606   1.398       .  A
C2605     Br2612   1.940       .  S
C2606      C2607   1.402       .  A
C2606     Br2611   1.927       .  S
C2607      C2608   1.412       .  A
C2608     Br2609   1.930       .  S
C2613      C2614   1.427       .  A
C2613      C2618   1.403       .  A
C2613     Br2620   1.939       .  S
C2614      C2615   1.414       .  A
C2615      C2616   1.402       .  A
C2615     Br2622   1.935       .  S
C2616      C2617   1.410       .  A
C2616     Br2621   1.929       .  S
C2617      C2618   1.401       .  A
C2618     Br2619   1.931       .  S
C2623      C2624   1.440       .  A
C2623      C2628   1.413       .  A
C2623     Br2630   1.942   1_455  S
C2624      C2625   1.414       .  A
C2625      C2626   1.407       .  A
C2625     Br2632   1.937       .  S
C2626      C2627   1.414       .  A
C2626     Br2631   1.924       .  S
C2627      C2628   1.402       .  A
C2628     Br2629   1.936       .  S
C2633      C2634   1.419       .  A
C2633      C2638   1.427       .  A
C2633     Br2640   1.931       .  S
C2634      C2635   1.418       .  A
C2635      C2636   1.421       .  A
C2635     Br2642   1.935       .  S
C2636      C2637   1.430       .  A
C2636     Br2641   1.934       .  S
C2637      C2638   1.424       .  A
C2638     Br2639   1.932       .  S
C2643      C2644   1.419       .  A
C2643      C2648   1.427       .  A
C2643     Br2650   1.930       .  S
C2644      C2645   1.413       .  A
C2645      C2646   1.424       .  A
C2645     Br2652   1.936       .  S
C2646      C2647   1.434       .  A
C2646     Br2651   1.936       .  S
C2647      C2648   1.428       .  A
C2648     Br2649   1.934       .  S
C2653      C2654   1.407       .  A
C2653      C2658   1.402       .  A
C2653     Br2660   1.924       .  S
C2654      C2655   1.412       .  A
C2655      C2656   1.398       .  A
C2655     Br2662   1.932       .  S
C2656      C2657   1.402       .  A
C2656     Br2661   1.929       .  S
C2657      C2658   1.403       .  A
C2658     Br2659   1.919       .  S
C2663      C2664   1.415       .  A
C2663      C2668   1.400       .  A
C2663     Br2670   1.932       .  S
C2664      C2665   1.400       .  A
C2665      C2666   1.408       .  A
C2665     Br2672   1.930       .  S
C2666      C2667   1.426       .  A
C2666     Br2671   1.934       .  S
C2667      C2668   1.405       .  A
C2668     Br2669   1.935       .  S
C2673      C2674   1.412       .  A
C2673      C2678   1.406       .  A
C2673     Br2680   1.925       .  S
C2674      C2675   1.400       .  A
C2675      C2676   1.402       .  A
C2675     Br2682   1.932       .  S
C2676      C2677   1.415       .  A
C2676     Br2681   1.920       .  S
C2677      C2678   1.407       .  A
C2678     Br2679   1.931       .  S
C2683      C2684   1.430       .  A
C2683      C2688   1.427       .  A
C2683     Br2690   1.931       .  S
C2684      C2685   1.420       .  A
C2685      C2686   1.431       .  A
C2685     Br2692   1.934       .  S
C2686      C2687   1.432       .  A
C2686     Br2691   1.934       .  S
C2687      C2688   1.416       .  A
C2688     Br2689   1.935       .  S
C2693      C2694   1.418       .  A
C2693      C2698   1.390       .  A
C2693     Br2700   1.931   1_455  S
C2694      C2695   1.395       .  A
C2695      C2696   1.401       .  A
C2695     Br2702   1.931       .  S
C2696      C2697   1.425       .  A
C2696     Br2701   1.935       .  S
C2697      C2698   1.401       .  A
C2698     Br2699   1.942       .  S
C2703      C2704   1.411       .  A
C2703      C2708   1.405       .  A
C2703     Br2710   1.930       .  S
C2704      C2705   1.414       .  A
C2705      C2706   1.405       .  A
C2705     Br2712   1.918       .  S
C2706      C2707   1.406       .  A
C2706     Br2711   1.933       .  S
C2707      C2708   1.411       .  A
C2708     Br2709   1.933       .  S
C2713      C2714   1.423       .  A
C2713      C2718   1.422       .  A
C2713     Br2720   1.938       .  S
C2714      C2715   1.421       .  A
C2715      C2716   1.428       .  A
C2715     Br2722   1.931       .  S
C2716      C2717   1.424       .  A
C2716     Br2721   1.930       .  S
C2717      C2718   1.423       .  A
C2718     Br2719   1.935       .  S
C2723      C2724   1.411       .  A
C2723      C2728   1.407       .  A
C2723     Br2730   1.926       .  S
C2724      C2725   1.431       .  A
C2725      C2726   1.392       .  A
C2725     Br2732   1.945       .  S
C2726      C2727   1.399       .  A
C2726     Br2731   1.943       .  S
C2727      C2728   1.419       .  A
C2728     Br2729   1.938       .  S
C2733      C2734   1.429       .  A
C2733      C2738   1.433       .  A
C2733     Br2740   1.936       .  S
C2734      C2735   1.435       .  A
C2735      C2736   1.431       .  A
C2735     Br2742   1.940       .  S
C2736      C2737   1.423       .  A
C2736     Br2741   1.937       .  S
C2737      C2738   1.425       .  A
C2738     Br2739   1.930       .  S
C2743      C2744   1.416       .  A
C2743      C2748   1.423       .  A
C2743     Br2750   1.930       .  S
C2744      C2745   1.414       .  A
C2745      C2746   1.415       .  A
C2745     Br2752   1.931       .  S
C2746      C2747   1.418       .  A
C2746     Br2751   1.934       .  S
C2747      C2748   1.422       .  A
C2748     Br2749   1.929       .  S
C2753      C2754   1.406       .  A
C2753      C2758   1.401       .  A
C2753     Br2760   1.931       .  S
C2754      C2755   1.416       .  A
C2755      C2756   1.407       .  A
C2755     Br2762   1.930       .  S
C2756      C2757   1.405       .  A
C2756     Br2761   1.928       .  S
C2757      C2758   1.405       .  A
C2758     Br2759   1.923       .  S
C2763      C2764   1.419       .  A
C2763      C2768   1.404       .  A
C2763     Br2770   1.939       .  S
C2764      C2765   1.396       .  A
C2765      C2766   1.392       .  A
C2765     Br2772   1.945       .  S
C2766      C2767   1.432       .  A
C2766     Br2771   1.939       .  S
C2767      C2768   1.407       .  A
C2768     Br2769   1.929       .  S
C2773      C2774   1.418       .  A
C2773      C2778   1.419       .  A
C2773     Br2780   1.928       .  S
C2774      C2775   1.412       .  A
C2775      C2776   1.408       .  A
C2775     Br2782   1.931       .  S
C2776      C2777   1.411       .  A
C2776     Br2781   1.930       .  S
C2777      C2778   1.413       .  A
C2778     Br2779   1.928       .  S
C2783      C2784   1.422       .  A
C2783      C2788   1.420       .  A
C2783     Br2790   1.925       .  S
C2784      C2785   1.404       .  A
C2785      C2786   1.402       .  A
C2785     Br2792   1.937       .  S
C2786      C2787   1.425       .  A
C2786     Br2791   1.916       .  S
C2787      C2788   1.412       .  A
C2788     Br2789   1.928       .  S
C2793      C2794   1.410       .  A
C2793      C2798   1.414       .  A
C2793     Br2800   1.921       .  S
C2794      C2795   1.411       .  A
C2795      C2796   1.403       .  A
C2795     Br2802   1.934       .  S
C2796      C2797   1.410       .  A
C2796     Br2801   1.935       .  S
C2797      C2798   1.411       .  A
C2798     Br2799   1.927       .  S
C2803      C2804   1.435       .  A
C2803      C2808   1.421       .  A
C2803     Br2810   1.935       .  S
C2804      C2805   1.411       .  A
C2805      C2806   1.419       .  A
C2805     Br2812   1.929       .  S
C2806      C2807   1.426       .  A
C2806     Br2811   1.937       .  S
C2807      C2808   1.406       .  A
C2808     Br2809   1.930       .  S
C2813      C2814   1.424       .  A
C2813      C2818   1.413       .  A
C2813     Br2820   1.935       .  S
C2814      C2815   1.398       .  A
C2815      C2816   1.413       .  A
C2815     Br2822   1.929       .  S
C2816      C2817   1.435       .  A
C2816     Br2821   1.934       .  S
C2817      C2818   1.408       .  A
C2818     Br2819   1.932       .  S
C2823      C2824   1.420       .  A
C2823      C2828   1.418       .  A
C2823     Br2830   1.925       .  S
C2824      C2825   1.411       .  A
C2825      C2826   1.411       .  A
C2825     Br2832   1.923       .  S
C2826      C2827   1.413       .  A
C2826     Br2831   1.927       .  S
C2827      C2828   1.407       .  A
C2828     Br2829   1.927       .  S
C2833      C2834   1.402       .  A
C2833      C2838   1.403       .  A
C2833     Br2840   1.935       .  S
C2834      C2835   1.423       .  A
C2835      C2836   1.401       .  A
C2835     Br2842   1.941       .  S
C2836      C2837   1.405       .  A
C2836     Br2841   1.936       .  S
C2837      C2838   1.423       .  A
C2838     Br2839   1.935       .  S
C2843      C2844   1.412       .  A
C2843      C2848   1.411       .  A
C2843     Br2850   1.920       .  S
C2844      C2845   1.413       .  A
C2845      C2846   1.429       .  A
C2845     Br2852   1.925       .  S
C2846      C2847   1.422       .  A
C2846     Br2851   1.926       .  S
C2847      C2848   1.411       .  A
C2848     Br2849   1.927       .  S
C2853      C2854   1.435       .  A
C2853      C2858   1.419       .  A
C2853     Br2860   1.939       .  S
C2854      C2855   1.422       .  A
C2855      C2856   1.427       .  A
C2855     Br2862   1.931       .  S
C2856      C2857   1.420       .  A
C2856     Br2861   1.932       .  S
C2857      C2858   1.409       .  A
C2858     Br2859   1.929       .  S
C2863      C2864   1.405       .  A
C2863      C2868   1.403       .  A
C2863     Br2870   1.929       .  S
C2864      C2865   1.420       .  A
C2865      C2866   1.402       .  A
C2865     Br2872   1.938       .  S
C2866      C2867   1.407       .  A
C2866     Br2871   1.934       .  S
C2867      C2868   1.412       .  A
C2868     Br2869   1.923       .  S
C2873      C2874   1.406       .  A
C2873      C2878   1.408       .  A
C2873     Br2880   1.936       .  S
C2874      C2875   1.413       .  A
C2875      C2876   1.401       .  A
C2875     Br2882   1.928       .  S
C2876      C2877   1.408       .  A
C2876     Br2881   1.937       .  S
C2877      C2878   1.428       .  A
C2878     Br2879   1.941       .  S
C2883      C2884   1.403       .  A
C2883      C2888   1.397       .  A
C2883     Br2890   1.932       .  S
C2884      C2885   1.421       .  A
C2885      C2886   1.412       .  A
C2885     Br2892   1.932       .  S
C2886      C2887   1.405       .  A
C2886     Br2891   1.922       .  S
C2887      C2888   1.417       .  A
C2888     Br2889   1.929       .  S
C2893      C2894   1.419       .  A
C2893      C2898   1.418       .  A
C2893     Br2900   1.933       .  S
C2894      C2895   1.423       .  A
C2895      C2896   1.422       .  A
C2895     Br2902   1.929       .  S
C2896      C2897   1.414       .  A
C2896     Br2901   1.927       .  S
C2897      C2898   1.417       .  A
C2898     Br2899   1.935       .  S
C2903      C2904   1.416       .  A
C2903      C2908   1.429       .  A
C2903     Br2910   1.923       .  S
C2904      C2905   1.414       .  A
C2905      C2906   1.406       .  A
C2905     Br2912   1.910       .  S
C2906      C2907   1.415       .  A
C2906     Br2911   1.945       .  S
C2907      C2908   1.419       .  A
C2908     Br2909   1.928       .  S
C2913      C2914   1.403       .  A
C2913      C2918   1.393       .  A
C2913     Br2920   1.934       .  S
C2914      C2915   1.401       .  A
C2915      C2916   1.409       .  A
C2915     Br2922   1.931       .  S
C2916      C2917   1.429       .  A
C2916     Br2921   1.935       .  S
C2917      C2918   1.416       .  A
C2918     Br2919   1.936       .  S
C2923      C2924   1.403       .  A
C2923      C2928   1.397       .  A
C2923     Br2930   1.934       .  S
C2924      C2925   1.405       .  A
C2925      C2926   1.402       .  A
C2925     Br2932   1.928       .  S
C2926      C2927   1.408       .  A
C2926     Br2931   1.930       .  S
C2927      C2928   1.409       .  A
C2928     Br2929   1.924       .  S
C2933      C2934   1.404       .  A
C2933      C2938   1.402       .  A
C2933     Br2940   1.934       .  S
C2934      C2935   1.417       .  A
C2935      C2936   1.407       .  A
C2935     Br2942   1.938       .  S
C2936      C2937   1.418       .  A
C2936     Br2941   1.935       .  S
C2937      C2938   1.426       .  A
C2938     Br2939   1.929       .  S
C2943      C2944   1.426       .  A
C2943      C2948   1.430       .  A
C2943     Br2950   1.935       .  S
C2944      C2945   1.423       .  A
C2945      C2946   1.428       .  A
C2945     Br2952   1.932       .  S
C2946      C2947   1.426       .  A
C2946     Br2951   1.935       .  S
C2947      C2948   1.422       .  A
C2948     Br2949   1.931       .  S
C2953      C2954   1.406       .  A
C2953      C2958   1.408       .  A
C2953     Br2960   1.929       .  S
C2954      C2955   1.395       .  A
C2955      C2956   1.399       .  A
C2955     Br2962   1.925       .  S
C2956      C2957   1.421       .  A
C2956     Br2961   1.918       .  S
C2957      C2958   1.419       .  A
C2958     Br2959   1.932       .  S
C2963      C2964   1.407       .  A
C2963      C2968   1.394       .  A
C2963     Br2970   1.933       .  S
C2964      C2965   1.429       .  A
C2965      C2966   1.412       .  A
C2965     Br2972   1.939       .  S
C2966      C2967   1.413       .  A
C2966     Br2971   1.937       .  S
C2967      C2968   1.413       .  A
C2968     Br2969   1.934       .  S
C2973      C2974   1.423       .  A
C2973      C2978   1.430       .  A
C2973     Br2980   1.932       .  S
C2974      C2975   1.419       .  A
C2975      C2976   1.423       .  A
C2975     Br2982   1.938       .  S
C2976      C2977   1.430       .  A
C2976     Br2981   1.939       .  S
C2977      C2978   1.425       .  A
C2978     Br2979   1.930       .  S
C2983      C2984   1.398       .  A
C2983      C2988   1.398       .  A
C2983     Br2990   1.932       .  S
C2984      C2985   1.403       .  A
C2985      C2986   1.403       .  A
C2985     Br2992   1.923       .  S
C2986      C2987   1.414       .  A
C2986     Br2991   1.926       .  S
C2987      C2988   1.414       .  A
C2988     Br2989   1.924       .  S
C2993      C2994   1.417       .  A
C2993      C2998   1.433       .  A
C2993     Br3000   1.924       .  S
C2994      C2995   1.408       .  A
C2995      C2996   1.414       .  A
C2995     Br3002   1.943       .  S
C2996      C2997   1.424       .  A
C2996     Br3001   1.918       .  S
C2997      C2998   1.421       .  A
C2998     Br2999   1.925       .  S
C3003      C3004   1.405       .  A
C3003      C3008   1.420       .  A
C3003     Br3010   1.931       .  S
C3004      C3005   1.421       .  A
C3005      C3006   1.414       .  A
C3005     Br3012   1.934       .  S
C3006      C3007   1.410       .  A
C3006     Br3011   1.927       .  S
C3007      C3008   1.436       .  A
C3008     Br3009   1.937       .  S
C3013      C3014   1.421       .  A
C3013      C3018   1.428       .  A
C3013     Br3020   1.932       .  S
C3014      C3015   1.431       .  A
C3015      C3016   1.418       .  A
C3015     Br3022   1.938       .  S
C3016      C3017   1.415       .  A
C3016     Br3021   1.938       .  S
C3017      C3018   1.426       .  A
C3018     Br3019   1.931       .  S
C3023      C3024   1.414       .  A
C3023      C3028   1.400       .  A
C3023     Br3030   1.928       .  S
C3024      C3025   1.414       .  A
C3025      C3026   1.404       .  A
C3025     Br3032   1.925       .  S
C3026      C3027   1.407       .  A
C3026     Br3031   1.930       .  S
C3027      C3028   1.393       .  A
C3028     Br3029   1.910       .  S
C3033      C3034   1.429       .  A
C3033      C3038   1.416       .  A
C3033     Br3040   1.941       .  S
C3034      C3035   1.406       .  A
C3035      C3036   1.413       .  A
C3035     Br3042   1.935       .  S
C3036      C3037   1.432       .  A
C3036     Br3041   1.934       .  S
C3037      C3038   1.418       .  A
C3038     Br3039   1.940       .  S
C3043      C3044   1.423       .  A
C3043      C3048   1.407       .  A
C3043     Br3050   1.933       .  S
C3044      C3045   1.410       .  A
C3045      C3046   1.403       .  A
C3045     Br3052   1.932       .  S
C3046      C3047   1.412       .  A
C3046     Br3051   1.931       .  S
C3047      C3048   1.399       .  A
C3048     Br3049   1.929       .  S
C3053      C3054   1.415       .  A
C3053      C3058   1.395       .  A
C3053     Br3060   1.924       .  S
C3054      C3055   1.419       .  A
C3055      C3056   1.408       .  A
C3055     Br3062   1.927       .  S
C3056      C3057   1.407       .  A
C3056     Br3061   1.928       .  S
C3057      C3058   1.400       .  A
C3058     Br3059   1.935       .  S
C3063      C3064   1.409       .  A
C3063      C3068   1.413       .  A
C3063     Br3070   1.932       .  S
C3064      C3065   1.432       .  A
C3065      C3066   1.416       .  A
C3065     Br3072   1.937       .  S
C3066      C3067   1.404       .  A
C3066     Br3071   1.930       .  S
C3067      C3068   1.421       .  A
C3068     Br3069   1.932       .  S
C3073      C3074   1.416       .  A
C3073      C3078   1.421       .  A
C3073     Br3080   1.931       .  S
C3074      C3075   1.424       .  A
C3075      C3076   1.419       .  A
C3075     Br3082   1.939       .  S
C3076      C3077   1.419       .  A
C3076     Br3081   1.933       .  S
C3077      C3078   1.425       .  A
C3078     Br3079   1.935       .  S
C3083      C3084   1.406       .  A
C3083      C3088   1.413       .  A
C3083     Br3090   1.932       .  S
C3084      C3085   1.422       .  A
C3085      C3086   1.415       .  A
C3085     Br3092   1.934       .  S
C3086      C3087   1.409       .  A
C3086     Br3091   1.927       .  S
C3087      C3088   1.430       .  A
C3088     Br3089   1.938       .  S
C3093      C3094   1.428       .  A
C3093      C3098   1.433       .  A
C3093     Br3100   1.928       .  S
C3094      C3095   1.417       .  A
C3095      C3096   1.410       .  A
C3095     Br3102   1.936       .  S
C3096      C3097   1.416       .  A
C3096     Br3101   1.912       .  S
C3097      C3098   1.418       .  A
C3098     Br3099   1.927       .  S
C3103      C3104   1.432       .  A
C3103      C3108   1.405       .  A
C3103     Br3110   1.935       .  S
C3104      C3105   1.422       .  A
C3105      C3106   1.400       .  A
C3105     Br3112   1.944       .  S
C3106      C3107   1.409       .  A
C3106     Br3111   1.932       .  S
C3107      C3108   1.397       .  A
C3108     Br3109   1.929       .  S
C3113      C3114   1.420       .  A
C3113      C3118   1.405       .  A
C3113     Br3120   1.933       .  S
C3114      C3115   1.411       .  A
C3115      C3116   1.416       .  A
C3115     Br3122   1.917       .  S
C3116      C3117   1.410       .  A
C3116     Br3121   1.929       .  S
C3117      C3118   1.407       .  A
C3118     Br3119   1.937       .  S
C3123      C3124   1.414       .  A
C3123      C3128   1.415       .  A
C3123     Br3130   1.930       .  S
C3124      C3125   1.415       .  A
C3125      C3126   1.414       .  A
C3125     Br3132   1.919       .  S
C3126      C3127   1.410       .  A
C3126     Br3131   1.931       .  S
C3127      C3128   1.411       .  A
C3128     Br3129   1.922       .  S
C3133      C3134   1.399       .  A
C3133      C3138   1.407       .  A
C3133     Br3140   1.930       .  S
C3134      C3135   1.414       .  A
C3135      C3136   1.402       .  A
C3135     Br3142   1.934       .  S
C3136      C3137   1.414       .  A
C3136     Br3141   1.939       .  S
C3137      C3138   1.426       .  A
C3138     Br3139   1.933       .  S
C3143      C3144   1.410       .  A
C3143      C3148   1.404       .  A
C3143     Br3150   1.931       .  S
C3144      C3145   1.413       .  A
C3145      C3146   1.410       .  A
C3145     Br3152   1.928       .  S
C3146      C3147   1.409       .  A
C3146     Br3151   1.928       .  S
C3147      C3148   1.410       .  A
C3148     Br3149   1.933       .  S
C3153      C3154   1.421       .  A
C3153      C3158   1.419       .  A
C3153     Br3160   1.934       .  S
C3154      C3155   1.425       .  A
C3155      C3156   1.425       .  A
C3155     Br3162   1.932       .  S
C3156      C3157   1.415       .  A
C3156     Br3161   1.927       .  S
C3157      C3158   1.423       .  A
C3158     Br3159   1.938       .  S
C3163      C3164   1.425       .  A
C3163      C3168   1.424       .  A
C3163     Br3170   1.926       .  S
C3164      C3165   1.422       .  A
C3165      C3166   1.422       .  A
C3165     Br3172   1.932       .  S
C3166      C3167   1.416       .  A
C3166     Br3171   1.932       .  S
C3167      C3168   1.413       .  A
C3168     Br3169   1.925       .  S
C3173      C3174   1.421       .  A
C3173      C3178   1.393       .  A
C3173     Br3180   1.920       .  S
C3174      C3175   1.409       .  A
C3175      C3176   1.407       .  A
C3175     Br3182   1.930       .  S
C3176      C3177   1.412       .  A
C3176     Br3181   1.931       .  S
C3177      C3178   1.398       .  A
C3178     Br3179   1.941       .  S
C3183      C3184   1.413       .  A
C3183      C3188   1.399       .  A
C3183     Br3190   1.933       .  S
C3184      C3185   1.398       .  A
C3185      C3186   1.401       .  A
C3185     Br3192   1.926       .  S
C3186      C3187   1.421       .  A
C3186     Br3191   1.934       .  S
C3187      C3188   1.407       .  A
C3188     Br3189   1.936       .  S
C3193      C3194   1.419       .  A
C3193      C3198   1.401       .  A
C3193     Br3200   1.926       .  S
C3194      C3195   1.417       .  A
C3195      C3196   1.416       .  A
C3195     Br3202   1.930       .  S
C3196      C3197   1.411       .  A
C3196     Br3201   1.928       .  S
C3197      C3198   1.400       .  A
C3198     Br3199   1.931       .  S
C3203      C3204   1.413       .  A
C3203      C3208   1.409       .  A
C3203     Br3210   1.932       .  S
C3204      C3205   1.405       .  A
C3205      C3206   1.406       .  A
C3205     Br3212   1.931       .  S
C3206      C3207   1.420       .  A
C3206     Br3211   1.938   1_565  S
C3207      C3208   1.411       .  A
C3208     Br3209   1.927       .  S
C3213      C3214   1.426       .  A
C3213      C3218   1.428       .  A
C3213     Br3220   1.931       .  S
C3214      C3215   1.417       .  A
C3215      C3216   1.419       .  A
C3215     Br3222   1.938       .  S
C3216      C3217   1.432       .  A
C3216     Br3221   1.941       .  S
C3217      C3218   1.422       .  A
C3218     Br3219   1.930       .  S
C3223      C3224   1.421       .  A
C3223      C3228   1.422       .  A
C3223     Br3230   1.933       .  S
C3224      C3225   1.423       .  A
C3225      C3226   1.424       .  A
C3225     Br3232   1.931       .  S
C3226      C3227   1.417       .  A
C3226     Br3231   1.929       .  S
C3227      C3228   1.424       .  A
C3228     Br3229   1.936       .  S
C3233      C3234   1.418       .  A
C3233      C3238   1.402       .  A
C3233     Br3240   1.928       .  S
C3234      C3235   1.423       .  A
C3235      C3236   1.396       .  A
C3235     Br3242   1.943       .  S
C3236      C3237   1.401       .  A
C3236     Br3241   1.924       .  S
C3237      C3238   1.404       .  A
C3238     Br3239   1.935       .  S
C3243      C3244   1.407       .  A
C3243      C3248   1.402       .  A
C3243     Br3250   1.931       .  S
C3244      C3245   1.419       .  A
C3245      C3246   1.395       .  A
C3245     Br3252   1.936       .  S
C3246      C3247   1.398       .  A
C3246     Br3251   1.928       .  S
C3247      C3248   1.409       .  A
C3248     Br3249   1.931       .  S
C3253      C3254   1.430       .  A
C3253      C3258   1.415       .  A
C3253     Br3260   1.935       .  S
C3254      C3255   1.409       .  A
C3255      C3256   1.419       .  A
C3255     Br3262   1.935       .  S
C3256      C3257   1.435       .  A
C3256     Br3261   1.940       .  S
C3257      C3258   1.408       .  A
C3258     Br3259   1.931       .  S
C3263      C3264   1.418       .  A
C3263      C3268   1.430       .  A
C3263     Br3270   1.925       .  S
C3264      C3265   1.405       .  A
C3265      C3266   1.416       .  A
C3265     Br3272   1.933       .  S
C3266      C3267   1.421       .  A
C3266     Br3271   1.901       .  S
C3267      C3268   1.419       .  A
C3268     Br3269   1.925       .  S
C3273      C3274   1.426       .  A
C3273      C3278   1.409       .  A
C3273     Br3280   1.935       .  S
C3274      C3275   1.403       .  A
C3275      C3276   1.413       .  A
C3275     Br3282   1.927       .  S
C3276      C3277   1.424       .  A
C3276     Br3281   1.929       .  S
C3277      C3278   1.401       .  A
C3278     Br3279   1.930       .  S
C3283      C3284   1.424       .  A
C3283      C3288   1.425       .  A
C3283     Br3290   1.938       .  S
C3284      C3285   1.421       .  A
C3285      C3286   1.427       .  A
C3285     Br3292   1.933       .  S
C3286      C3287   1.424       .  A
C3286     Br3291   1.933       .  S
C3287      C3288   1.424       .  A
C3288     Br3289   1.932       .  S
C3293      C3294   1.412       .  A
C3293      C3298   1.414       .  A
C3293     Br3300   1.927       .  S
C3294      C3295   1.411       .  A
C3295      C3296   1.408       .  A
C3295     Br3302   1.928       .  S
C3296      C3297   1.408       .  A
C3296     Br3301   1.929       .  S
C3297      C3298   1.412       .  A
C3298     Br3299   1.926       .  S
C3303      C3304   1.424       .  A
C3303      C3308   1.426       .  A
C3303     Br3310   1.933       .  S
C3304      C3305   1.425       .  A
C3305      C3306   1.425       .  A
C3305     Br3312   1.936       .  S
C3306      C3307   1.423       .  A
C3306     Br3311   1.933       .  S
C3307      C3308   1.423       .  A
C3308     Br3309   1.935       .  S
C3313      C3314   1.402       .  A
C3313      C3318   1.400       .  A
C3313     Br3320   1.933       .  S
C3314      C3315   1.419       .  A
C3315      C3316   1.405       .  A
C3315     Br3322   1.926       .  S
C3316      C3317   1.398       .  A
C3316     Br3321   1.923       .  S
C3317      C3318   1.410       .  A
C3318     Br3319   1.918       .  S
C3323      C3324   1.416       .  A
C3323      C3328   1.403       .  A
C3323     Br3330   1.933       .  S
C3324      C3325   1.410       .  A
C3325      C3326   1.418       .  A
C3325     Br3332   1.927       .  S
C3326      C3327   1.419       .  A
C3326     Br3331   1.922       .  S
C3327      C3328   1.400       .  A
C3328     Br3329   1.926       .  S
C3333      C3334   1.421       .  A
C3333      C3338   1.400       .  A
C3333     Br3340   1.927       .  S
C3334      C3335   1.402       .  A
C3335      C3336   1.397       .  A
C3335     Br3342   1.935       .  S
C3336      C3337   1.415       .  A
C3336     Br3341   1.933       .  S
C3337      C3338   1.396       .  A
C3338     Br3339   1.929       .  S
C3343      C3344   1.407       .  A
C3343      C3348   1.403       .  A
C3343     Br3350   1.935       .  S
C3344      C3345   1.416       .  A
C3345      C3346   1.410       .  A
C3345     Br3352   1.926       .  S
C3346      C3347   1.410       .  A
C3346     Br3351   1.934       .  S
C3347      C3348   1.420       .  A
C3348     Br3349   1.931       .  S
C3353      C3354   1.436       .  A
C3353      C3358   1.416       .  A
C3353     Br3360   1.936       .  S
C3354      C3355   1.413       .  A
C3355      C3356   1.416       .  A
C3355     Br3362   1.932       .  S
C3356      C3357   1.428       .  A
C3356     Br3361   1.937       .  S
C3357      C3358   1.404       .  A
C3358     Br3359   1.938       .  S
C3363      C3364   1.415       .  A
C3363      C3368   1.411       .  A
C3363     Br3370   1.928       .  S
C3364      C3365   1.410       .  A
C3365      C3366   1.419       .  A
C3365     Br3372   1.929       .  S
C3366      C3367   1.423       .  A
C3366     Br3371   1.932       .  S
C3367      C3368   1.413       .  A
C3368     Br3369   1.935       .  S
C3373      C3374   1.406       .  A
C3373      C3378   1.403       .  A
C3373     Br3380   1.932       .  S
C3374      C3375   1.413       .  A
C3375      C3376   1.416       .  A
C3375     Br3382   1.927       .  S
C3376      C3377   1.412       .  A
C3376     Br3381   1.929       .  S
C3377      C3378   1.413       .  A
C3378     Br3379   1.933       .  S
C3383      C3384   1.425       .  A
C3383      C3388   1.423       .  A
C3383     Br3390   1.933       .  S
C3384      C3385   1.421       .  A
C3385      C3386   1.426       .  A
C3385     Br3392   1.931       .  S
C3386      C3387   1.424       .  A
C3386     Br3391   1.934       .  S
C3387      C3388   1.415       .  A
C3388     Br3389   1.929       .  S
C3393      C3394   1.419       .  A
C3393      C3398   1.435       .  A
C3393     Br3400   1.925       .  S
C3394      C3395   1.421       .  A
C3395      C3396   1.415       .  A
C3395     Br3402   1.914       .  S
C3396      C3397   1.406       .  A
C3396     Br3401   1.933       .  S
C3397      C3398   1.420       .  A
C3398     Br3399   1.924       .  S
C3403      C3404   1.401       .  A
C3403      C3408   1.398       .  A
C3403     Br3410   1.930       .  S
C3404      C3405   1.411       .  A
C3405      C3406   1.397       .  A
C3405     Br3412   1.928       .  S
C3406      C3407   1.403       .  A
C3406     Br3411   1.935       .  S
C3407      C3408   1.412       .  A
C3408     Br3409   1.919       .  S
C3413      C3414   1.391       .  A
C3413      C3418   1.390       .  A
C3413     Br3420   1.925       .  S
C3414      C3415   1.416       .  A
C3415      C3416   1.396       .  A
C3415     Br3422   1.939       .  S
C3416      C3417   1.407       .  A
C3416     Br3421   1.934       .  S
C3417      C3418   1.415       .  A
C3418     Br3419   1.917       .  S
C3423      C3424   1.406       .  A
C3423      C3428   1.400       .  A
C3423     Br3430   1.936       .  S
C3424      C3425   1.417       .  A
C3425      C3426   1.406       .  A
C3425     Br3432   1.931       .  S
C3426      C3427   1.404       .  A
C3426     Br3431   1.931       .  S
C3427      C3428   1.412       .  A
C3428     Br3429   1.926       .  S
C3433      C3434   1.413       .  A
C3433      C3438   1.410       .  A
C3433     Br3440   1.934       .  S
C3434      C3435   1.422       .  A
C3435      C3436   1.403       .  A
C3435     Br3442   1.934       .  S
C3436      C3437   1.406       .  A
C3436     Br3441   1.937       .  S
C3437      C3438   1.416       .  A
C3438     Br3439   1.932       .  S
C3443      C3444   1.419       .  A
C3443      C3448   1.417       .  A
C3443     Br3450   1.925       .  S
C3444      C3445   1.413       .  A
C3445      C3446   1.422       .  A
C3445     Br3452   1.930       .  S
C3446      C3447   1.425       .  A
C3446     Br3451   1.931       .  S
C3447      C3448   1.418       .  A
C3448     Br3449   1.934       .  S
C3453      C3454   1.403       .  A
C3453      C3458   1.403       .  A
C3453     Br3460   1.923       .  S
C3454      C3455   1.403       .  A
C3455      C3456   1.404       .  A
C3455     Br3462   1.930       .  S
C3456      C3457   1.415       .  A
C3456     Br3461   1.933       .  S
C3457      C3458   1.408       .  A
C3458     Br3459   1.918       .  S
C3463      C3464   1.428       .  A
C3463      C3468   1.425       .  A
C3463     Br3470   1.935       .  S
C3464      C3465   1.420       .  A
C3465      C3466   1.426       .  A
C3465     Br3472   1.932       .  S
C3466      C3467   1.425       .  A
C3466     Br3471   1.932       .  S
C3467      C3468   1.416       .  A
C3468     Br3469   1.932       .  S
C3473      C3474   1.417       .  A
C3473      C3478   1.429       .  A
C3473     Br3480   1.924       .  S
C3474      C3475   1.409       .  A
C3475      C3476   1.416       .  A
C3475     Br3482   1.935       .  S
C3476      C3477   1.420       .  A
C3476     Br3481   1.921       .  S
C3477      C3478   1.416       .  A
C3478     Br3479   1.925       .  S
C3483      C3484   1.424       .  A
C3483      C3488   1.400       .  A
C3483     Br3490   1.925       .  S
C3484      C3485   1.424       .  A
C3485      C3486   1.394       .  A
C3485     Br3492   1.942       .  S
C3486      C3487   1.399       .  A
C3486     Br3491   1.935       .  S
C3487      C3488   1.393       .  A
C3488     Br3489   1.933       .  S
C3493      C3494   1.400       .  A
C3493      C3498   1.405       .  A
C3493     Br3500   1.939       .  S
C3494      C3495   1.404       .  A
C3495      C3496   1.397       .  A
C3495     Br3502   1.920       .  S
C3496      C3497   1.412       .  A
C3496     Br3501   1.937       .  S
C3497      C3498   1.435       .  A
C3498     Br3499   1.941       .  S
C3503      C3504   1.412       .  A
C3503      C3508   1.403       .  A
C3503     Br3510   1.922       .  S
C3504      C3505   1.409       .  A
C3505      C3506   1.407       .  A
C3505     Br3512   1.933       .  S
C3506      C3507   1.413       .  A
C3506     Br3511   1.925       .  S
C3507      C3508   1.401       .  A
C3508     Br3509   1.922       .  S
C3513      C3514   1.412       .  A
C3513      C3518   1.418       .  A
C3513     Br3520   1.934       .  S
C3514      C3515   1.418       .  A
C3515      C3516   1.427       .  A
C3515     Br3522   1.925       .  S
C3516      C3517   1.413       .  A
C3516     Br3521   1.923       .  S
C3517      C3518   1.421       .  A
C3518     Br3519   1.925       .  S
C3523      C3524   1.430       .  A
C3523      C3528   1.411       .  A
C3523     Br3530   1.932       .  S
C3524      C3525   1.410       .  A
C3525      C3526   1.413       .  A
C3525     Br3532   1.932       .  S
C3526      C3527   1.420       .  A
C3526     Br3531   1.935       .  S
C3527      C3528   1.401       .  A
C3528     Br3529   1.933       .  S
C3533      C3534   1.403       .  A
C3533      C3538   1.418       .  A
C3533     Br3540   1.929       .  S
C3534      C3535   1.424       .  A
C3535      C3536   1.417       .  A
C3535     Br3542   1.935       .  S
C3536      C3537   1.412       .  A
C3536     Br3541   1.932       .  S
C3537      C3538   1.434       .  A
C3538     Br3539   1.935       .  S
C3543      C3544   1.415       .  A
C3543      C3548   1.416       .  A
C3543     Br3550   1.927       .  S
C3544      C3545   1.410       .  A
C3545      C3546   1.404       .  A
C3545     Br3552   1.926       .  S
C3546      C3547   1.401       .  A
C3546     Br3551   1.918       .  S
C3547      C3548   1.410       .  A
C3548     Br3549   1.928       .  S
C3553      C3554   1.422       .  A
C3553      C3558   1.406       .  A
C3553     Br3560   1.930       .  S
C3554      C3555   1.403       .  A
C3555      C3556   1.408       .  A
C3555     Br3562   1.927       .  S
C3556      C3557   1.421       .  A
C3556     Br3561   1.932       .  S
C3557      C3558   1.400       .  A
C3558     Br3559   1.928       .  S
C3563      C3564   1.417       .  A
C3563      C3568   1.415       .  A
C3563     Br3570   1.930       .  S
C3564      C3565   1.415       .  A
C3565      C3566   1.416       .  A
C3565     Br3572   1.929       .  S
C3566      C3567   1.412       .  A
C3566     Br3571   1.927       .  S
C3567      C3568   1.410       .  A
C3568     Br3569   1.930       .  S
C3573      C3574   1.423       .  A
C3573      C3578   1.414       .  A
C3573     Br3580   1.937       .  S
C3574      C3575   1.402       .  A
C3575      C3576   1.415       .  A
C3575     Br3582   1.932       .  S
C3576      C3577   1.433       .  A
C3576     Br3581   1.931       .  S
C3577      C3578   1.410       .  A
C3578     Br3579   1.931       .  S
C3583      C3584   1.409       .  A
C3583      C3588   1.405       .  A
C3583     Br3590   1.934   1_455  S
C3584      C3585   1.403       .  A
C3585      C3586   1.403       .  A
C3585     Br3592   1.934       .  S
C3586      C3587   1.414       .  A
C3586     Br3591   1.913       .  S
C3587      C3588   1.415       .  A
C3588     Br3589   1.934       .  S
C3593      C3594   1.421       .  A
C3593      C3598   1.423       .  A
C3593     Br3600   1.937       .  S
C3594      C3595   1.424       .  A
C3595      C3596   1.430       .  A
C3595     Br3602   1.931       .  S
C3596      C3597   1.421       .  A
C3596     Br3601   1.929       .  S
C3597      C3598   1.425       .  A
C3598     Br3599   1.936       .  S
C3603      C3604   1.414       .  A
C3603      C3608   1.418       .  A
C3603     Br3610   1.935       .  S
C3604      C3605   1.426       .  A
C3605      C3606   1.424       .  A
C3605     Br3612   1.934       .  S
C3606      C3607   1.416       .  A
C3606     Br3611   1.932       .  S
C3607      C3608   1.426       .  A
C3608     Br3609   1.933       .  S
C3613      C3614   1.415       .  A
C3613      C3618   1.405       .  A
C3613     Br3620   1.932       .  S
C3614      C3615   1.402       .  A
C3615      C3616   1.402       .  A
C3615     Br3622   1.926       .  S
C3616      C3617   1.413       .  A
C3616     Br3621   1.924       .  S
C3617      C3618   1.407       .  A
C3618     Br3619   1.933       .  S
C3623      C3624   1.400       .  A
C3623      C3628   1.395       .  A
C3623     Br3630   1.931       .  S
C3624      C3625   1.399       .  A
C3625      C3626   1.400       .  A
C3625     Br3632   1.919       .  S
C3626      C3627   1.412       .  A
C3626     Br3631   1.933       .  S
C3627      C3628   1.408       .  A
C3628     Br3629   1.915       .  S
C3633      C3634   1.410       .  A
C3633      C3638   1.396       .  A
C3633     Br3640   1.931       .  S
C3634      C3635   1.403       .  A
C3635      C3636   1.408       .  A
C3635     Br3642   1.935       .  S
C3636      C3637   1.428       .  A
C3636     Br3641   1.934       .  S
C3637      C3638   1.409       .  A
C3638     Br3639   1.934       .  S
C3643      C3644   1.418       .  A
C3643      C3648   1.426       .  A
C3643     Br3650   1.936       .  S
C3644      C3645   1.425       .  A
C3645      C3646   1.429       .  A
C3645     Br3652   1.936       .  S
C3646      C3647   1.421       .  A
C3646     Br3651   1.924       .  S
C3647      C3648   1.430       .  A
C3648     Br3649   1.936       .  S
C3653      C3654   1.423       .  A
C3653      C3658   1.429       .  A
C3653     Br3660   1.937       .  S
C3654      C3655   1.430       .  A
C3655      C3656   1.425       .  A
C3655     Br3662   1.936       .  S
C3656      C3657   1.419       .  A
C3656     Br3661   1.935       .  S
C3657      C3658   1.430       .  A
C3658     Br3659   1.938       .  S
C3663      C3664   1.406       .  A
C3663      C3668   1.399       .  A
C3663     Br3670   1.924       .  S
C3664      C3665   1.407       .  A
C3665      C3666   1.401       .  A
C3665     Br3672   1.932       .  S
C3666      C3667   1.410       .  A
C3666     Br3671   1.924       .  S
C3667      C3668   1.405       .  A
C3668     Br3669   1.929       .  S
C3673      C3674   1.405       .  A
C3673      C3678   1.406       .  A
C3673     Br3680   1.926       .  S
C3674      C3675   1.398       .  A
C3675      C3676   1.409       .  A
C3675     Br3682   1.935       .  S
C3676      C3677   1.434       .  A
C3676     Br3681   1.941       .  S
C3677      C3678   1.417       .  A
C3678     Br3679   1.922       .  S
C3683      C3684   1.431       .  A
C3683      C3688   1.407       .  A
C3683     Br3690   1.943       .  S
C3684      C3685   1.411       .  A
C3685      C3686   1.400       .  A
C3685     Br3692   1.935       .  S
C3686      C3687   1.415       .  A
C3686     Br3691   1.938       .  S
C3687      C3688   1.406       .  A
C3688     Br3689   1.924       .  S
C3693      C3694   1.417       .  A
C3693      C3698   1.401       .  A
C3693     Br3700   1.938       .  S
C3694      C3695   1.400       .  A
C3695      C3696   1.404       .  A
C3695     Br3702   1.936       .  S
C3696      C3697   1.427       .  A
C3696     Br3701   1.934       .  S
C3697      C3698   1.409       .  A
C3698     Br3699   1.937       .  S
C3703      C3704   1.421       .  A
C3703      C3708   1.419       .  A
C3703     Br3710   1.936       .  S
C3704      C3705   1.424       .  A
C3705      C3706   1.429       .  A
C3705     Br3712   1.929       .  S
C3706      C3707   1.420       .  A
C3706     Br3711   1.930       .  S
C3707      C3708   1.420       .  A
C3708     Br3709   1.936       .  S
C3713      C3714   1.416       .  A
C3713      C3718   1.420       .  A
C3713     Br3720   1.929       .  S
C3714      C3715   1.418       .  A
C3715      C3716   1.434       .  A
C3715     Br3722   1.924       .  S
C3716      C3717   1.419       .  A
C3716     Br3721   1.925       .  S
C3717      C3718   1.415       .  A
C3718     Br3719   1.922       .  S
C3723      C3724   1.414       .  A
C3723      C3728   1.404       .  A
C3723     Br3730   1.932       .  S
C3724      C3725   1.396       .  A
C3725      C3726   1.400       .  A
C3725     Br3732   1.930       .  S
C3726      C3727   1.415       .  A
C3726     Br3731   1.918       .  S
C3727      C3728   1.406       .  A
C3728     Br3729   1.933       .  S
C3733      C3734   1.404       .  A
C3733      C3738   1.398       .  A
C3733     Br3740   1.928       .  S
C3734      C3735   1.407       .  A
C3735      C3736   1.406       .  A
C3735     Br3742   1.927       .  S
C3736      C3737   1.408       .  A
C3736     Br3741   1.927       .  S
C3737      C3738   1.409       .  A
C3738     Br3739   1.934       .  S
C3743      C3744   1.403       .  A
C3743      C3748   1.411       .  A
C3743     Br3750   1.936       .  S
C3744      C3745   1.414       .  A
C3745      C3746   1.406       .  A
C3745     Br3752   1.923       .  S
C3746      C3747   1.410       .  A
C3746     Br3751   1.932       .  S
C3747      C3748   1.430       .  A
C3748     Br3749   1.935       .  S
C3753      C3754   1.419       .  A
C3753      C3758   1.420       .  A
C3753     Br3760   1.914       .  S
C3754      C3755   1.418       .  A
C3755      C3756   1.433       .  A
C3755     Br3762   1.922       .  S
C3756      C3757   1.417       .  A
C3756     Br3761   1.924       .  S
C3757      C3758   1.411       .  A
C3758     Br3759   1.930       .  S
C3763      C3764   1.410       .  A
C3763      C3768   1.399       .  A
C3763     Br3770   1.935   1_455  S
C3764      C3765   1.402       .  A
C3765      C3766   1.404       .  A
C3765     Br3772   1.929       .  S
C3766      C3767   1.416       .  A
C3766     Br3771   1.931       .  S
C3767      C3768   1.407       .  A
C3768     Br3769   1.931       .  S
C3773      C3774   1.418       .  A
C3773      C3778   1.429       .  A
C3773     Br3780   1.934       .  S
C3774      C3775   1.423       .  A
C3775      C3776   1.426       .  A
C3775     Br3782   1.934       .  S
C3776      C3777   1.431       .  A
C3776     Br3781   1.942       .  S
C3777      C3778   1.430       .  A
C3778     Br3779   1.932       .  S
C3783      C3784   1.411       .  A
C3783      C3788   1.408       .  A
C3783     Br3790   1.921       .  S
C3784      C3785   1.427       .  A
C3785      C3786   1.422       .  A
C3785     Br3792   1.925       .  S
C3786      C3787   1.409       .  A
C3786     Br3791   1.926       .  S
C3787      C3788   1.412       .  A
C3788     Br3789   1.933       .  S
C3793      C3794   1.409       .  A
C3793      C3798   1.413       .  A
C3793     Br3800   1.932       .  S
C3794      C3795   1.411       .  A
C3795      C3796   1.420       .  A
C3795     Br3802   1.925       .  S
C3796      C3797   1.413       .  A
C3796     Br3801   1.924       .  S
C3797      C3798   1.418       .  A
C3798     Br3799   1.925       .  S
C3803      C3804   1.416       .  A
C3803      C3808   1.405       .  A
C3803     Br3810   1.934       .  S
C3804      C3805   1.399       .  A
C3805      C3806   1.390       .  A
C3805     Br3812   1.939       .  S
C3806      C3807   1.424       .  A
C3806     Br3811   1.943       .  S
C3807      C3808   1.409       .  A
C3808     Br3809   1.931       .  S
C3813      C3814   1.413       .  A
C3813      C3818   1.411       .  A
C3813     Br3820   1.933       .  S
C3814      C3815   1.419       .  A
C3815      C3816   1.414       .  A
C3815     Br3822   1.932       .  S
C3816      C3817   1.408       .  A
C3816     Br3821   1.925       .  S
C3817      C3818   1.416       .  A
C3818     Br3819   1.933       .  S
C3823      C3824   1.415       .  A
C3823      C3828   1.404       .  A
C3823     Br3830   1.930       .  S
C3824      C3825   1.403       .  A
C3825      C3826   1.401       .  A
C3825     Br3832   1.932       .  S
C3826      C3827   1.413       .  A
C3826     Br3831   1.918       .  S
C3827      C3828   1.404       .  A
C3828     Br3829   1.930       .  S
C3833      C3834   1.401       .  A
C3833      C3838   1.401       .  A
C3833     Br3840   1.934       .  S
C3834      C3835   1.412       .  A
C3835      C3836   1.404       .  A
C3835     Br3842   1.932       .  S
C3836      C3837   1.408       .  A
C3836     Br3841   1.929       .  S
C3837      C3838   1.423       .  A
C3838     Br3839   1.934       .  S
C3843      C3844   1.424       .  A
C3843      C3848   1.407       .  A
C3843     Br3850   1.935       .  S
C3844      C3845   1.404       .  A
C3845      C3846   1.408       .  A
C3845     Br3852   1.926       .  S
C3846      C3847   1.418       .  A
C3846     Br3851   1.930       .  S
C3847      C3848   1.402       .  A
C3848     Br3849   1.930       .  S
C3853      C3854   1.426       .  A
C3853      C3858   1.435       .  A
C3853     Br3860   1.932       .  S
C3854      C3855   1.435       .  A
C3855      C3856   1.425       .  A
C3855     Br3862   1.938       .  S
C3856      C3857   1.416       .  A
C3856     Br3861   1.937       .  S
C3857      C3858   1.428       .  A
C3858     Br3859   1.931       .  S
C3863      C3864   1.412       .  A
C3863      C3868   1.417       .  A
C3863     Br3870   1.928       .  S
C3864      C3865   1.413       .  A
C3865      C3866   1.417       .  A
C3865     Br3872   1.929       .  S
C3866      C3867   1.414       .  A
C3866     Br3871   1.924       .  S
C3867      C3868   1.410       .  A
C3868     Br3869   1.920       .  S
C3873      C3874   1.421       .  A
C3873      C3878   1.437       .  A
C3873     Br3880   1.927       .  S
C3874      C3875   1.407       .  A
C3875      C3876   1.413       .  A
C3875     Br3882   1.933       .  S
C3876      C3877   1.429       .  A
C3876     Br3881   1.922       .  S
C3877      C3878   1.425       .  A
C3878     Br3879   1.927       .  S
C3883      C3884   1.402       .  A
C3883      C3888   1.400       .  A
C3883     Br3890   1.927       .  S
C3884      C3885   1.412       .  A
C3885      C3886   1.401       .  A
C3885     Br3892   1.926       .  S
C3886      C3887   1.401       .  A
C3886     Br3891   1.929       .  S
C3887      C3888   1.406       .  A
C3888     Br3889   1.923       .  S
C3893      C3894   1.402       .  A
C3893      C3898   1.415       .  A
C3893     Br3900   1.930       .  S
C3894      C3895   1.421       .  A
C3895      C3896   1.409       .  A
C3895     Br3902   1.931       .  S
C3896      C3897   1.409       .  A
C3896     Br3901   1.936       .  S
C3897      C3898   1.429       .  A
C3898     Br3899   1.926       .  S
C3903      C3904   1.399       .  A
C3903      C3908   1.413       .  A
C3903     Br3910   1.931       .  S
C3904      C3905   1.422       .  A
C3905      C3906   1.410       .  A
C3905     Br3912   1.935       .  S
C3906      C3907   1.407       .  A
C3906     Br3911   1.933       .  S
C3907      C3908   1.435       .  A
C3908     Br3909   1.932       .  S
C3913      C3914   1.407       .  A
C3913      C3918   1.409       .  A
C3913     Br3920   1.931       .  S
C3914      C3915   1.416       .  A
C3915      C3916   1.413       .  A
C3915     Br3922   1.923       .  S
C3916      C3917   1.410       .  A
C3916     Br3921   1.934       .  S
C3917      C3918   1.413       .  A
C3918     Br3919   1.926   1_556  S
C3923      C3924   1.415       .  A
C3923      C3928   1.403       .  A
C3923     Br3930   1.930       .  S
C3924      C3925   1.404       .  A
C3925      C3926   1.399       .  A
C3925     Br3932   1.934       .  S
C3926      C3927   1.412       .  A
C3926     Br3931   1.927       .  S
C3927      C3928   1.402       .  A
C3928     Br3929   1.927       .  S
C3933      C3934   1.420       .  A
C3933      C3938   1.426       .  A
C3933     Br3940   1.934       .  S
C3934      C3935   1.428       .  A
C3935      C3936   1.432       .  A
C3935     Br3942   1.928       .  S
C3936      C3937   1.416       .  A
C3936     Br3941   1.928       .  S
C3937      C3938   1.423       .  A
C3938     Br3939   1.933       .  S
C3943      C3944   1.422       .  A
C3943      C3948   1.422       .  A
C3943     Br3950   1.932       .  S
C3944      C3945   1.423       .  A
C3945      C3946   1.424       .  A
C3945     Br3952   1.933       .  S
C3946      C3947   1.418       .  A
C3946     Br3951   1.930       .  S
C3947      C3948   1.421       .  A
C3948     Br3949   1.935       .  S
C3953      C3954   1.396       .  A
C3953      C3958   1.395       .  A
C3953     Br3960   1.930       .  S
C3954      C3955   1.412       .  A
C3955      C3956   1.395       .  A
C3955     Br3962   1.931       .  S
C3956      C3957   1.402       .  A
C3956     Br3961   1.935       .  S
C3957      C3958   1.418       .  A
C3958     Br3959   1.929       .  S
C3963      C3964   1.405       .  A
C3963      C3968   1.403       .  A
C3963     Br3970   1.929       .  S
C3964      C3965   1.408       .  A
C3965      C3966   1.401       .  A
C3965     Br3972   1.931       .  S
C3966      C3967   1.408       .  A
C3966     Br3971   1.934       .  S
C3967      C3968   1.408       .  A
C3968     Br3969   1.928       .  S
C3973      C3974   1.397       .  A
C3973      C3978   1.400       .  A
C3973     Br3980   1.918       .  S
C3974      C3975   1.413       .  A
C3975      C3976   1.416       .  A
C3975     Br3982   1.929       .  S
C3976      C3977   1.417       .  A
C3976     Br3981   1.930       .  S
C3977      C3978   1.425       .  A
C3978     Br3979   1.941       .  S
C3983      C3984   1.416       .  A
C3983      C3988   1.403       .  A
C3983     Br3990   1.937       .  S
C3984      C3985   1.401       .  A
C3985      C3986   1.404       .  A
C3985     Br3992   1.932       .  S
C3986      C3987   1.424       .  A
C3986     Br3991   1.937       .  S
C3987      C3988   1.411       .  A
C3988     Br3989   1.936       .  S
C3993      C3994   1.415       .  A
C3993      C3998   1.407       .  A
C3993     Br4000   1.911       .  S
C3994      C3995   1.417       .  A
C3995      C3996   1.431       .  A
C3995     Br4002   1.922       .  S
C3996      C3997   1.419       .  A
C3996     Br4001   1.925       .  S
C3997      C3998   1.405       .  A
C3998     Br3999   1.925       .  S
C4003      C4004   1.419       .  A
C4003      C4008   1.427       .  A
C4003     Br4010   1.938       .  S
C4004      C4005   1.424       .  A
C4005      C4006   1.433       .  A
C4005     Br4012   1.934       .  S
C4006      C4007   1.428       .  A
C4006     Br4011   1.933       .  S
C4007      C4008   1.431       .  A
C4008     Br4009   1.936       .  S
C4013      C4014   1.411       .  A
C4013      C4018   1.400       .  A
C4013     Br4020   1.923       .  S
C4014      C4015   1.440       .  A
C4015      C4016   1.399       .  A
C4015     Br4022   1.945       .  S
C4016      C4017   1.393       .  A
C4016     Br4021   1.939       .  S
C4017      C4018   1.405       .  A
C4018     Br4019   1.920       .  S
C4023      C4024   1.396       .  A
C4023      C4028   1.401       .  A
C4023     Br4030   1.924       .  S
C4024      C4025   1.397       .  A
C4025      C4026   1.414       .  A
C4025     Br4032   1.926       .  S
C4026      C4027   1.430       .  A
C4026     Br4031   1.930       .  S
C4027      C4028   1.426       .  A
C4028     Br4029   1.935       .  S
C4033      C4034   1.423       .  A
C4033      C4038   1.401       .  A
C4033     Br4040   1.930       .  S
C4034      C4035   1.414       .  A
C4035      C4036   1.412       .  A
C4035     Br4042   1.928       .  S
C4036      C4037   1.413       .  A
C4036     Br4041   1.923       .  S
C4037      C4038   1.398       .  A
C4038     Br4039   1.934       .  S
C4043      C4044   1.426       .  A
C4043      C4048   1.427       .  A
C4043     Br4050   1.941       .  S
C4044      C4045   1.427       .  A
C4045      C4046   1.428       .  A
C4045     Br4052   1.929       .  S
C4046      C4047   1.421       .  A
C4046     Br4051   1.935       .  S
C4047      C4048   1.431       .  A
C4048     Br4049   1.938       .  S
C4053      C4054   1.423       .  A
C4053      C4058   1.431       .  A
C4053     Br4060   1.936       .  S
C4054      C4055   1.421       .  A
C4055      C4056   1.425       .  A
C4055     Br4062   1.938       .  S
C4056      C4057   1.431       .  A
C4056     Br4061   1.938       .  S
C4057      C4058   1.428       .  A
C4058     Br4059   1.934       .  S
C4063      C4064   1.417       .  A
C4063      C4068   1.401       .  A
C4063     Br4070   1.941       .  S
C4064      C4065   1.403       .  A
C4065      C4066   1.404       .  A
C4065     Br4072   1.931       .  S
C4066      C4067   1.422       .  A
C4066     Br4071   1.936       .  S
C4067      C4068   1.412       .  A
C4068     Br4069   1.939       .  S
C4073      C4074   1.422       .  A
C4073      C4078   1.390       .  A
C4073     Br4080   1.935       .  S
C4074      C4075   1.410       .  A
C4075      C4076   1.408       .  A
C4075     Br4082   1.924       .  S
C4076      C4077   1.420       .  A
C4076     Br4081   1.932       .  S
C4077      C4078   1.398       .  A
C4078     Br4079   1.931       .  S
C4083      C4084   1.412       .  A
C4083      C4088   1.410       .  A
C4083     Br4090   1.932       .  S
C4084      C4085   1.400       .  A
C4085      C4086   1.405       .  A
C4085     Br4092   1.935       .  S
C4086      C4087   1.427       .  A
C4086     Br4091   1.932       .  S
C4087      C4088   1.412       .  A
C4088     Br4089   1.929       .  S
C4093      C4094   1.431       .  A
C4093      C4098   1.428       .  A
C4093     Br4100   1.937       .  S
C4094      C4095   1.421       .  A
C4095      C4096   1.427       .  A
C4095     Br4102   1.933       .  S
C4096      C4097   1.427       .  A
C4096     Br4101   1.936       .  S
C4097      C4098   1.419       .  A
C4098     Br4099   1.933       .  S
C4103      C4104   1.415       .  A
C4103      C4108   1.412       .  A
C4103     Br4110   1.920       .  S
C4104      C4105   1.419       .  A
C4105      C4106   1.430       .  A
C4105     Br4112   1.924       .  S
C4106      C4107   1.418       .  A
C4106     Br4111   1.925       .  S
C4107      C4108   1.411       .  A
C4108     Br4109   1.925       .  S
C4113      C4114   1.413       .  A
C4113      C4118   1.410       .  A
C4113     Br4120   1.935       .  S
C4114      C4115   1.421       .  A
C4115      C4116   1.399       .  A
C4115     Br4122   1.926       .  S
C4116      C4117   1.402       .  A
C4116     Br4121   1.940       .  S
C4117      C4118   1.418       .  A
C4118     Br4119   1.935       .  S
C4123      C4124   1.404       .  A
C4123      C4128   1.405       .  A
C4123     Br4130   1.932       .  S
C4124      C4125   1.415       .  A
C4125      C4126   1.405       .  A
C4125     Br4132   1.929       .  S
C4126      C4127   1.402       .  A
C4126     Br4131   1.927       .  S
C4127      C4128   1.415       .  A
C4128     Br4129   1.918       .  S
C4133      C4134   1.413       .  A
C4133      C4138   1.396       .  A
C4133     Br4140   1.913       .  S
C4134      C4135   1.412       .  A
C4135      C4136   1.404       .  A
C4135     Br4142   1.926       .  S
C4136      C4137   1.407       .  A
C4136     Br4141   1.931       .  S
C4137      C4138   1.396       .  A
C4138     Br4139   1.927       .  S
C4143      C4144   1.418       .  A
C4143      C4148   1.419       .  A
C4143     Br4150   1.935       .  S
C4144      C4145   1.425       .  A
C4145      C4146   1.421       .  A
C4145     Br4152   1.935       .  S
C4146      C4147   1.417       .  A
C4146     Br4151   1.934       .  S
C4147      C4148   1.427       .  A
C4148     Br4149   1.938       .  S
C4153      C4154   1.425       .  A
C4153      C4158   1.432       .  A
C4153     Br4160   1.928       .  S
C4154      C4155   1.428       .  A
C4155      C4156   1.411       .  A
C4155     Br4162   1.933       .  S
C4156      C4157   1.409       .  A
C4156     Br4161   1.937       .  S
C4157      C4158   1.418       .  A
C4158     Br4159   1.925       .  S
C4163      C4164   1.414       .  A
C4163      C4168   1.407       .  A
C4163     Br4170   1.923       .  S
C4164      C4165   1.405       .  A
C4165      C4166   1.401       .  A
C4165     Br4172   1.933       .  S
C4166      C4167   1.413       .  A
C4166     Br4171   1.933       .  S
C4167      C4168   1.405       .  A
C4168     Br4169   1.933       .  S
C4173      C4174   1.400       .  A
C4173      C4178   1.405       .  A
C4173     Br4180   1.926       .  S
C4174      C4175   1.423       .  A
C4175      C4176   1.392       .  A
C4175     Br4182   1.938       .  S
C4176      C4177   1.405       .  A
C4176     Br4181   1.949       .  S
C4177      C4178   1.419       .  A
C4178     Br4179   1.932       .  S
C4183      C4184   1.406       .  A
C4183      C4188   1.407       .  A
C4183     Br4190   1.915       .  S
C4184      C4185   1.406       .  A
C4185      C4186   1.401       .  A
C4185     Br4192   1.927       .  S
C4186      C4187   1.408       .  A
C4186     Br4191   1.932       .  S
C4187      C4188   1.409       .  A
C4188     Br4189   1.930       .  S
C4193      C4194   1.426       .  A
C4193      C4198   1.430       .  A
C4193     Br4200   1.930       .  S
C4194      C4195   1.419       .  A
C4195      C4196   1.426       .  A
C4195     Br4202   1.931       .  S
C4196      C4197   1.425       .  A
C4196     Br4201   1.934       .  S
C4197      C4198   1.420       .  A
C4198     Br4199   1.929       .  S
C4203      C4204   1.433       .  A
C4203      C4208   1.433       .  A
C4203     Br4210   1.937       .  S
C4204      C4205   1.426       .  A
C4205      C4206   1.429       .  A
C4205     Br4212   1.933       .  S
C4206      C4207   1.425       .  A
C4206     Br4211   1.937       .  S
C4207      C4208   1.421       .  A
C4208     Br4209   1.931       .  S
C4213      C4214   1.402       .  A
C4213      C4218   1.400       .  A
C4213     Br4220   1.925       .  S
C4214      C4215   1.405       .  A
C4215      C4216   1.399       .  A
C4215     Br4222   1.926       .  S
C4216      C4217   1.407       .  A
C4216     Br4221   1.932       .  S
C4217      C4218   1.408       .  A
C4218     Br4219   1.927       .  S
C4223      C4224   1.401       .  A
C4223      C4228   1.405       .  A
C4223     Br4230   1.943       .  S
C4224      C4225   1.419       .  A
C4225      C4226   1.406       .  A
C4225     Br4232   1.939       .  S
C4226      C4227   1.413       .  A
C4226     Br4231   1.926       .  S
C4227      C4228   1.436       .  A
C4228     Br4229   1.944       .  S
C4233      C4234   1.407       .  A
C4233      C4238   1.403       .  A
C4233     Br4240   1.924       .  S
C4234      C4235   1.412       .  A
C4235      C4236   1.404       .  A
C4235     Br4242   1.936   1_556  S
C4236      C4237   1.415       .  A
C4236     Br4241   1.935       .  S
C4237      C4238   1.408       .  A
C4238     Br4239   1.924       .  S
C4243      C4244   1.422       .  A
C4243      C4248   1.430       .  A
C4243     Br4250   1.931       .  S
C4244      C4245   1.425       .  A
C4245      C4246   1.414       .  A
C4245     Br4252   1.940       .  S
C4246      C4247   1.418       .  A
C4246     Br4251   1.938       .  S
C4247      C4248   1.424       .  A
C4248     Br4249   1.929       .  S
C4253      C4254   1.428       .  A
C4253      C4258   1.424       .  A
C4253     Br4260   1.934       .  S
C4254      C4255   1.422       .  A
C4255      C4256   1.428       .  A
C4255     Br4262   1.931       .  S
C4256      C4257   1.423       .  A
C4256     Br4261   1.935       .  S
C4257      C4258   1.418       .  A
C4258     Br4259   1.934       .  S
C4263      C4264   1.411       .  A
C4263      C4268   1.400       .  A
C4263     Br4270   1.920       .  S
C4264      C4265   1.403       .  A
C4265      C4266   1.401       .  A
C4265     Br4272   1.932       .  S
C4266      C4267   1.415       .  A
C4266     Br4271   1.929   1_556  S
C4267      C4268   1.400       .  A
C4268     Br4269   1.929       .  S
C4273      C4274   1.404       .  A
C4273      C4278   1.401       .  A
C4273     Br4280   1.927       .  S
C4274      C4275   1.401       .  A
C4275      C4276   1.395       .  A
C4275     Br4282   1.931       .  S
C4276      C4277   1.414       .  A
C4276     Br4281   1.934       .  S
C4277      C4278   1.411       .  A
C4278     Br4279   1.925       .  S
C4283      C4284   1.415       .  A
C4283      C4288   1.409       .  A
C4283     Br4290   1.928       .  S
C4284      C4285   1.402       .  A
C4285      C4286   1.407       .  A
C4285     Br4292   1.934       .  S
C4286      C4287   1.423       .  A
C4286     Br4291   1.924       .  S
C4287      C4288   1.410       .  A
C4288     Br4289   1.931       .  S
C4293      C4294   1.423       .  A
C4293      C4298   1.431       .  A
C4293     Br4300   1.934       .  S
C4294      C4295   1.427       .  A
C4295      C4296   1.422       .  A
C4295     Br4302   1.937       .  S
C4296      C4297   1.419       .  A
C4296     Br4301   1.931       .  S
C4297      C4298   1.431       .  A
C4298     Br4299   1.936       .  S
C4303      C4304   1.410       .  A
C4303      C4308   1.405       .  A
C4303     Br4310   1.914       .  S
C4304      C4305   1.423       .  A
C4305      C4306   1.440       .  A
C4305     Br4312   1.924       .  S
C4306      C4307   1.424       .  A
C4306     Br4311   1.924       .  S
C4307      C4308   1.410       .  A
C4308     Br4309   1.919       .  S
C4313      C4314   1.423       .  A
C4313      C4318   1.395       .  A
C4313     Br4320   1.938       .  S
C4314      C4315   1.418       .  A
C4315      C4316   1.408       .  A
C4315     Br4322   1.934       .  S
C4316      C4317   1.415       .  A
C4316     Br4321   1.935       .  S
C4317      C4318   1.403       .  A
C4318     Br4319   1.938       .  S
C4323      C4324   1.407       .  A
C4323      C4328   1.401       .  A
C4323     Br4330   1.933       .  S
C4324      C4325   1.413       .  A
C4325      C4326   1.401       .  A
C4325     Br4332   1.935       .  S
C4326      C4327   1.404       .  A
C4326     Br4331   1.930       .  S
C4327      C4328   1.411       .  A
C4328     Br4329   1.932       .  S
C4333      C4334   1.411       .  A
C4333      C4338   1.405       .  A
C4333     Br4340   1.934       .  S
C4334      C4335   1.423       .  A
C4335      C4336   1.409       .  A
C4335     Br4342   1.936       .  S
C4336      C4337   1.404       .  A
C4336     Br4341   1.929       .  S
C4337      C4338   1.413       .  A
C4338     Br4339   1.932       .  S
C4343      C4344   1.416       .  A
C4343      C4348   1.421       .  A
C4343     Br4350   1.931       .  S
C4344      C4345   1.422       .  A
C4345      C4346   1.422       .  A
C4345     Br4352   1.935       .  S
C4346      C4347   1.417       .  A
C4346     Br4351   1.932       .  S
C4347      C4348   1.422       .  A
C4348     Br4349   1.929       .  S
C4353      C4354   1.417       .  A
C4353      C4358   1.429       .  A
C4353     Br4360   1.936       .  S
C4354      C4355   1.424       .  A
C4355      C4356   1.429       .  A
C4355     Br4362   1.934       .  S
C4356      C4357   1.426       .  A
C4356     Br4361   1.933       .  S
C4357      C4358   1.439       .  A
C4358     Br4359   1.941       .  S
C4363      C4364   1.412       .  A
C4363      C4368   1.391       .  A
C4363     Br4370   1.928       .  S
C4364      C4365   1.404       .  A
C4365      C4366   1.410       .  A
C4365     Br4372   1.928       .  S
C4366      C4367   1.419       .  A
C4366     Br4371   1.925       .  S
C4367      C4368   1.396       .  A
C4368     Br4369   1.924       .  S
C4373      C4374   1.422       .  A
C4373      C4378   1.410       .  A
C4373     Br4380   1.917       .  S
C4374      C4375   1.404       .  A
C4375      C4376   1.401       .  A
C4375     Br4382   1.917       .  S
C4376      C4377   1.405       .  A
C4376     Br4381   1.922       .  S
C4377      C4378   1.400       .  A
C4378     Br4379   1.931       .  S
C4383      C4384   1.415       .  A
C4383      C4388   1.404       .  A
C4383     Br4390   1.933       .  S
C4384      C4385   1.405       .  A
C4385      C4386   1.405       .  A
C4385     Br4392   1.935       .  S
C4386      C4387   1.426       .  A
C4386     Br4391   1.941       .  S
C4387      C4388   1.408       .  A
C4388     Br4389   1.933       .  S
C4393      C4394   1.428       .  A
C4393      C4398   1.422       .  A
C4393     Br4400   1.936       .  S
C4394      C4395   1.418       .  A
C4395      C4396   1.421       .  A
C4395     Br4402   1.933       .  S
C4396      C4397   1.425       .  A
C4396     Br4401   1.938       .  S
C4397      C4398   1.415       .  A
C4398     Br4399   1.932       .  S
C4403      C4404   1.417       .  A
C4403      C4408   1.429       .  A
C4403     Br4410   1.925       .  S
C4404      C4405   1.414       .  A
C4405      C4406   1.408       .  A
C4405     Br4412   1.923       .  S
C4406      C4407   1.412       .  A
C4406     Br4411   1.925       .  S
C4407      C4408   1.416       .  A
C4408     Br4409   1.924       .  S
C4413      C4414   1.435       .  A
C4413      C4418   1.404       .  A
C4413     Br4420   1.945       .  S
C4414      C4415   1.414       .  A
C4415      C4416   1.400       .  A
C4415     Br4422   1.940       .  S
C4416      C4417   1.409       .  A
C4416     Br4421   1.920       .  S
C4417      C4418   1.401       .  A
C4418     Br4419   1.937       .  S
C4423      C4424   1.397       .  A
C4423      C4428   1.397       .  A
C4423     Br4430   1.922       .  S
C4424      C4425   1.405       .  A
C4425      C4426   1.404       .  A
C4425     Br4432   1.933       .  S
C4426      C4427   1.420       .  A
C4426     Br4431   1.927       .  S
C4427      C4428   1.409       .  A
C4428     Br4429   1.912       .  S
C4433      C4434   1.421       .  A
C4433      C4438   1.401       .  A
C4433     Br4440   1.908       .  S
C4434      C4435   1.407       .  A
C4435      C4436   1.413       .  A
C4435     Br4442   1.929       .  S
C4436      C4437   1.420       .  A
C4436     Br4441   1.930       .  S
C4437      C4438   1.393       .  A
C4438     Br4439   1.934       .  S
C4443      C4444   1.420       .  A
C4443      C4448   1.424       .  A
C4443     Br4450   1.933       .  S
C4444      C4445   1.426       .  A
C4445      C4446   1.435       .  A
C4445     Br4452   1.933       .  S
C4446      C4447   1.422       .  A
C4446     Br4451   1.930       .  S
C4447      C4448   1.423       .  A
C4448     Br4449   1.934       .  S
C4453      C4454   1.425       .  A
C4453      C4458   1.421       .  A
C4453     Br4460   1.932       .  S
C4454      C4455   1.423       .  A
C4455      C4456   1.425       .  A
C4455     Br4462   1.933       .  S
C4456      C4457   1.425       .  A
C4456     Br4461   1.937       .  S
C4457      C4458   1.415       .  A
C4458     Br4459   1.931       .  S
C4463      C4464   1.420       .  A
C4463      C4468   1.395       .  A
C4463     Br4470   1.942       .  S
C4464      C4465   1.399       .  A
C4465      C4466   1.399       .  A
C4465     Br4472   1.926       .  S
C4466      C4467   1.419       .  A
C4466     Br4471   1.936       .  S
C4467      C4468   1.404       .  A
C4468     Br4469   1.938       .  S
C4473      C4474   1.401       .  A
C4473      C4478   1.398       .  A
C4473     Br4480   1.914       .  S
C4474      C4475   1.411       .  A
C4475      C4476   1.400       .  A
C4475     Br4482   1.927   1_455  S
C4476      C4477   1.404       .  A
C4476     Br4481   1.930       .  S
C4477      C4478   1.414       .  A
C4478     Br4479   1.919       .  S
C4483      C4484   1.405       .  A
C4483      C4488   1.405       .  A
C4483     Br4490   1.932       .  S
C4484      C4485   1.424       .  A
C4485      C4486   1.407       .  A
C4485     Br4492   1.923       .  S
C4486      C4487   1.399       .  A
C4486     Br4491   1.934       .  S
C4487      C4488   1.417       .  A
C4488     Br4489   1.929       .  S
C4493      C4494   1.427       .  A
C4493      C4498   1.426       .  A
C4493     Br4500   1.931       .  S
C4494      C4495   1.421       .  A
C4495      C4496   1.421       .  A
C4495     Br4502   1.935       .  S
C4496      C4497   1.423       .  A
C4496     Br4501   1.937       .  S
C4497      C4498   1.417       .  A
C4498     Br4499   1.931       .  S
C4503      C4504   1.428       .  A
C4503      C4508   1.426       .  A
C4503     Br4510   1.936       .  S
C4504      C4505   1.424       .  A
C4505      C4506   1.430       .  A
C4505     Br4512   1.931       .  S
C4506      C4507   1.429       .  A
C4506     Br4511   1.937       .  S
C4507      C4508   1.421       .  A
C4508     Br4509   1.934       .  S
C4513      C4514   1.403       .  A
C4513      C4518   1.403       .  A
C4513     Br4520   1.935       .  S
C4514      C4515   1.408       .  A
C4515      C4516   1.403       .  A
C4515     Br4522   1.933       .  S
C4516      C4517   1.414       .  A
C4516     Br4521   1.931       .  S
C4517      C4518   1.414       .  A
C4518     Br4519   1.919       .  S
C4523      C4524   1.413       .  A
C4523      C4528   1.409       .  A
C4523     Br4530   1.927       .  S
C4524      C4525   1.429       .  A
C4525      C4526   1.396       .  A
C4525     Br4532   1.941       .  S
C4526      C4527   1.399       .  A
C4526     Br4531   1.940       .  S
C4527      C4528   1.416       .  A
C4528     Br4529   1.936       .  S
C4533      C4534   1.427       .  A
C4533      C4538   1.406       .  A
C4533     Br4540   1.937       .  S
C4534      C4535   1.403       .  A
C4535      C4536   1.405       .  A
C4535     Br4542   1.934       .  S
C4536      C4537   1.423       .  A
C4536     Br4541   1.931       .  S
C4537      C4538   1.403       .  A
C4538     Br4539   1.936       .  S
C4543      C4544   1.420       .  A
C4543      C4548   1.429       .  A
C4543     Br4550   1.932       .  S
C4544      C4545   1.425       .  A
C4545      C4546   1.429       .  A
C4545     Br4552   1.931       .  S
C4546      C4547   1.420       .  A
C4546     Br4551   1.930       .  S
C4547      C4548   1.431       .  A
C4548     Br4549   1.936       .  S
C4553      C4554   1.410       .  A
C4553      C4558   1.422       .  A
C4553     Br4560   1.926       .  S
C4554      C4555   1.417       .  A
C4555      C4556   1.410       .  A
C4555     Br4562   1.915       .  S
C4556      C4557   1.408       .  A
C4556     Br4561   1.936       .  S
C4557      C4558   1.418       .  A
C4558     Br4559   1.921       .  S
C4563      C4564   1.407       .  A
C4563      C4568   1.407       .  A
C4563     Br4570   1.932       .  S
C4564      C4565   1.414       .  A
C4565      C4566   1.404       .  A
C4565     Br4572   1.929       .  S
C4566      C4567   1.407       .  A
C4566     Br4571   1.932       .  S
C4567      C4568   1.417       .  A
C4568     Br4569   1.925       .  S
C4573      C4574   1.418       .  A
C4573      C4578   1.391       .  A
C4573     Br4580   1.940       .  S
C4574      C4575   1.400       .  A
C4575      C4576   1.392       .  A
C4575     Br4582   1.927       .  S
C4576      C4577   1.410       .  A
C4576     Br4581   1.926       .  S
C4577      C4578   1.405       .  A
C4578     Br4579   1.939       .  S
C4583      C4584   1.407       .  A
C4583      C4588   1.398       .  A
C4583     Br4590   1.934       .  S
C4584      C4585   1.424       .  A
C4585      C4586   1.403       .  A
C4585     Br4592   1.938       .  S
C4586      C4587   1.400       .  A
C4586     Br4591   1.931       .  S
C4587      C4588   1.415       .  A
C4588     Br4589   1.940       .  S
C4593      C4594   1.424       .  A
C4593      C4598   1.422       .  A
C4593     Br4600   1.938       .  S
C4594      C4595   1.416       .  A
C4595      C4596   1.423       .  A
C4595     Br4602   1.928       .  S
C4596      C4597   1.429       .  A
C4596     Br4601   1.938       .  S
C4597      C4598   1.419       .  A
C4598     Br4599   1.933       .  S
C4603      C4604   1.414       .  A
C4603      C4608   1.423       .  A
C4603     Br4610   1.938       .  S
C4604      C4605   1.423       .  A
C4605      C4606   1.428       .  A
C4605     Br4612   1.932       .  S
C4606      C4607   1.426       .  A
C4606     Br4611   1.931       .  S
C4607      C4608   1.436       .  A
C4608     Br4609   1.939       .  S
C4613      C4614   1.409       .  A
C4613      C4618   1.403       .  A
C4613     Br4620   1.927       .  S
C4614      C4615   1.402       .  A
C4615      C4616   1.401       .  A
C4615     Br4622   1.931       .  S
C4616      C4617   1.413       .  A
C4616     Br4621   1.922       .  S
C4617      C4618   1.406       .  A
C4618     Br4619   1.930       .  S
C4623      C4624   1.402       .  A
C4623      C4628   1.403       .  A
C4623     Br4630   1.935       .  S
C4624      C4625   1.413       .  A
C4625      C4626   1.402       .  A
C4625     Br4632   1.932       .  S
C4626      C4627   1.410       .  A
C4626     Br4631   1.932       .  S
C4627      C4628   1.432       .  A
C4628     Br4629   1.942       .  S
C4633      C4634   1.403       .  A
C4633      C4638   1.403       .  A
C4633     Br4640   1.936       .  S
C4634      C4635   1.415       .  A
C4635      C4636   1.409       .  A
C4635     Br4642   1.937       .  S
C4636      C4637   1.421       .  A
C4636     Br4641   1.938       .  S
C4637      C4638   1.418       .  A
C4638     Br4639   1.915       .  S
C4643      C4644   1.410       .  A
C4643      C4648   1.406       .  A
C4643     Br4650   1.932       .  S
C4644      C4645   1.431       .  A
C4645      C4646   1.405       .  A
C4645     Br4652   1.939       .  S
C4646      C4647   1.398       .  A
C4646     Br4651   1.933       .  S
C4647      C4648   1.419       .  A
C4648     Br4649   1.938       .  S
C4653      C4654   1.418       .  A
C4653      C4658   1.424       .  A
C4653     Br4660   1.938       .  S
C4654      C4655   1.426       .  A
C4655      C4656   1.434       .  A
C4655     Br4662   1.930       .  S
C4656      C4657   1.423       .  A
C4656     Br4661   1.929       .  S
C4657      C4658   1.434       .  A
C4658     Br4659   1.940       .  S
C4663      C4664   1.426       .  A
C4663      C4668   1.426       .  A
C4663     Br4670   1.935       .  S
C4664      C4665   1.424       .  A
C4665      C4666   1.429       .  A
C4665     Br4672   1.930       .  S
C4666      C4667   1.427       .  A
C4666     Br4671   1.937       .  S
C4667      C4668   1.419       .  A
C4668     Br4669   1.926       .  S
C4673      C4674   1.406       .  A
C4673      C4678   1.402       .  A
C4673     Br4680   1.924       .  S
C4674      C4675   1.416       .  A
C4675      C4676   1.405       .  A
C4675     Br4682   1.926       .  S
C4676      C4677   1.403       .  A
C4676     Br4681   1.933       .  S
C4677      C4678   1.404       .  A
C4678     Br4679   1.919       .  S
C4683      C4684   1.402       .  A
C4683      C4688   1.403       .  A
C4683     Br4690   1.921       .  S
C4684      C4685   1.395       .  A
C4685      C4686   1.398       .  A
C4685     Br4692   1.931       .  S
C4686      C4687   1.417       .  A
C4686     Br4691   1.925       .  S
C4687      C4688   1.413       .  A
C4688     Br4689   1.934       .  S
C4693      C4694   1.413       .  A
C4693      C4698   1.412       .  A
C4693     Br4700   1.932       .  S
C4694      C4695   1.413       .  A
C4695      C4696   1.411       .  A
C4695     Br4702   1.932       .  S
C4696      C4697   1.416       .  A
C4696     Br4701   1.932       .  S
C4697      C4698   1.414       .  A
C4698     Br4699   1.931       .  S
C4703      C4704   1.427       .  A
C4703      C4708   1.404       .  A
C4703     Br4710   1.940       .  S
C4704      C4705   1.409       .  A
C4705      C4706   1.410       .  A
C4705     Br4712   1.933       .  S
C4706      C4707   1.418       .  A
C4706     Br4711   1.931       .  S
C4707      C4708   1.403       .  A
C4708     Br4709   1.933       .  S
C4713      C4714   1.419       .  A
C4713      C4718   1.420       .  A
C4713     Br4720   1.936       .  S
C4714      C4715   1.414       .  A
C4715      C4716   1.425       .  A
C4715     Br4722   1.931       .  S
C4716      C4717   1.430       .  A
C4716     Br4721   1.931       .  S
C4717      C4718   1.422       .  A
C4718     Br4719   1.934       .  S
C4723      C4724   1.428       .  A
C4723      C4728   1.427       .  A
C4723     Br4730   1.937       .  S
C4724      C4725   1.420       .  A
C4725      C4726   1.430       .  A
C4725     Br4732   1.933       .  S
C4726      C4727   1.432       .  A
C4726     Br4731   1.935       .  S
C4727      C4728   1.420       .  A
C4728     Br4729   1.933       .  S
C4733      C4734   1.413       .  A
C4733      C4738   1.405       .  A
C4733     Br4740   1.935       .  S
C4734      C4735   1.410       .  A
C4735      C4736   1.393       .  A
C4735     Br4742   1.929       .  S
C4736      C4737   1.398       .  A
C4736     Br4741   1.924       .  S
C4737      C4738   1.413       .  A
C4738     Br4739   1.929       .  S
C4743      C4744   1.409       .  A
C4743      C4748   1.406       .  A
C4743     Br4750   1.930       .  S
C4744      C4745   1.423       .  A
C4745      C4746   1.391       .  A
C4745     Br4752   1.938       .  S
C4746      C4747   1.396       .  A
C4746     Br4751   1.933       .  S
C4747      C4748   1.414       .  A
C4748     Br4749   1.934       .  S
C4753      C4754   1.408       .  A
C4753      C4758   1.403       .  A
C4753     Br4760   1.912       .  S
C4754      C4755   1.406       .  A
C4755      C4756   1.407       .  A
C4755     Br4762   1.931       .  S
C4756      C4757   1.413       .  A
C4756     Br4761   1.928   1_455  S
C4757      C4758   1.400       .  A
C4758     Br4759   1.924       .  S
C4763      C4764   1.411       .  A
C4763      C4768   1.406       .  A
C4763     Br4770   1.933       .  S
C4764      C4765   1.397       .  A
C4765      C4766   1.396       .  A
C4765     Br4772   1.926       .  S
C4766      C4767   1.425       .  A
C4766     Br4771   1.939       .  S
C4767      C4768   1.411       .  A
C4768     Br4769   1.927       .  S
C4773      C4774   1.423       .  A
C4773      C4778   1.431       .  A
C4773     Br4780   1.931       .  S
C4774      C4775   1.418       .  A
C4775      C4776   1.421       .  A
C4775     Br4782   1.927       .  S
C4776      C4777   1.426       .  A
C4776     Br4781   1.938       .  S
C4777      C4778   1.423       .  A
C4778     Br4779   1.929       .  S
C4783      C4784   1.422       .  A
C4783      C4788   1.428       .  A
C4783     Br4790   1.932       .  S
C4784      C4785   1.420       .  A
C4785      C4786   1.424       .  A
C4785     Br4792   1.934       .  S
C4786      C4787   1.422       .  A
C4786     Br4791   1.933       .  S
C4787      C4788   1.424       .  A
C4788     Br4789   1.927       .  S
C4793      C4794   1.398       .  A
C4793      C4798   1.405       .  A
C4793     Br4800   1.929       .  S
C4794      C4795   1.402       .  A
C4795      C4796   1.407       .  A
C4795     Br4802   1.919       .  S
C4796      C4797   1.409       .  A
C4796     Br4801   1.921       .  S
C4797      C4798   1.419       .  A
C4798     Br4799   1.914       .  S
C4803      C4804   1.400       .  A
C4803      C4808   1.406       .  A
C4803     Br4810   1.928       .  S
C4804      C4805   1.404       .  A
C4805      C4806   1.402       .  A
C4805     Br4812   1.924       .  S
C4806      C4807   1.415       .  A
C4806     Br4811   1.925       .  S
C4807      C4808   1.416       .  A
C4808     Br4809   1.912       .  S
C4813      C4814   1.429       .  A
C4813      C4818   1.406       .  A
C4813     Br4820   1.937       .  S
C4814      C4815   1.408       .  A
C4815      C4816   1.400       .  A
C4815     Br4822   1.931       .  S
C4816      C4817   1.415       .  A
C4816     Br4821   1.935       .  S
C4817      C4818   1.398       .  A
C4818     Br4819   1.933       .  S
C4823      C4824   1.424       .  A
C4823      C4828   1.405       .  A
C4823     Br4830   1.936       .  S
C4824      C4825   1.406       .  A
C4825      C4826   1.408       .  A
C4825     Br4832   1.925       .  S
C4826      C4827   1.425       .  A
C4826     Br4831   1.932       .  S
C4827      C4828   1.407       .  A
C4828     Br4829   1.928       .  S
C4833      C4834   1.425       .  A
C4833      C4838   1.429       .  A
C4833     Br4840   1.936       .  S
C4834      C4835   1.419       .  A
C4835      C4836   1.427       .  A
C4835     Br4842   1.933       .  S
C4836      C4837   1.432       .  A
C4836     Br4841   1.939       .  S
C4837      C4838   1.425       .  A
C4838     Br4839   1.933       .  S
C4843      C4844   1.430       .  A
C4843      C4848   1.433       .  A
C4843     Br4850   1.932       .  S
C4844      C4845   1.437       .  A
C4845      C4846   1.425       .  A
C4845     Br4852   1.939       .  S
C4846      C4847   1.414       .  A
C4846     Br4851   1.938       .  S
C4847      C4848   1.422       .  A
C4848     Br4849   1.932       .  S
C4853      C4854   1.398       .  A
C4853      C4858   1.400       .  A
C4853     Br4860   1.930       .  S
C4854      C4855   1.406       .  A
C4855      C4856   1.404       .  A
C4855     Br4862   1.924       .  S
C4856      C4857   1.410       .  A
C4856     Br4861   1.932       .  S
C4857      C4858   1.414       .  A
C4858     Br4859   1.930       .  S
C4863      C4864   1.407       .  A
C4863      C4868   1.400       .  A
C4863     Br4870   1.928       .  S
C4864      C4865   1.411       .  A
C4865      C4866   1.399       .  A
C4865     Br4872   1.924       .  S
C4866      C4867   1.402       .  A
C4866     Br4871   1.933       .  S
C4867      C4868   1.403       .  A
C4868     Br4869   1.925       .  S
C4873      C4874   1.406       .  A
C4873      C4878   1.399       .  A
C4873     Br4880   1.924       .  S
C4874      C4875   1.411       .  A
C4875      C4876   1.401       .  A
C4875     Br4882   1.926   1_455  S
C4876      C4877   1.412       .  A
C4876     Br4881   1.938       .  S
C4877      C4878   1.409       .  A
C4878     Br4879   1.931       .  S
C4883      C4884   1.413       .  A
C4883      C4888   1.404       .  A
C4883     Br4890   1.936       .  S
C4884      C4885   1.440       .  A
C4885      C4886   1.414       .  A
C4885     Br4892   1.942       .  S
C4886      C4887   1.401       .  A
C4886     Br4891   1.932       .  S
C4887      C4888   1.408       .  A
C4888     Br4889   1.916       .  S
C4893      C4894   1.413       .  A
C4893      C4898   1.422       .  A
C4893     Br4900   1.933       .  S
C4894      C4895   1.417       .  A
C4895      C4896   1.426       .  A
C4895     Br4902   1.934       .  S
C4896      C4897   1.428       .  A
C4896     Br4901   1.934       .  S
C4897      C4898   1.432       .  A
C4898     Br4899   1.937       .  S
C4903      C4904   1.419       .  A
C4903      C4908   1.428       .  A
C4903     Br4910   1.934       .  S
C4904      C4905   1.421       .  A
C4905      C4906   1.436       .  A
C4905     Br4912   1.929       .  S
C4906      C4907   1.428       .  A
C4906     Br4911   1.929       .  S
C4907      C4908   1.432       .  A
C4908     Br4909   1.933       .  S
C4913      C4914   1.426       .  A
C4913      C4918   1.395       .  A
C4913     Br4920   1.943       .  S
C4914      C4915   1.409       .  A
C4915      C4916   1.404       .  A
C4915     Br4922   1.935       .  S
C4916      C4917   1.417       .  A
C4916     Br4921   1.936       .  S
C4917      C4918   1.401       .  A
C4918     Br4919   1.939       .  S
C4923      C4924   1.412       .  A
C4923      C4928   1.411       .  A
C4923     Br4930   1.932       .  S
C4924      C4925   1.411       .  A
C4925      C4926   1.403       .  A
C4925     Br4932   1.925       .  S
C4926      C4927   1.402       .  A
C4926     Br4931   1.918       .  S
C4927      C4928   1.416       .  A
C4928     Br4929   1.929       .  S
C4933      C4934   1.402       .  A
C4933      C4938   1.404       .  A
C4933     Br4940   1.931       .  S
C4934      C4935   1.418       .  A
C4935      C4936   1.401       .  A
C4935     Br4942   1.934       .  S
C4936      C4937   1.402       .  A
C4936     Br4941   1.931       .  S
C4937      C4938   1.425       .  A
C4938     Br4939   1.941       .  S
C4943      C4944   1.411       .  A
C4943      C4948   1.407       .  A
C4943     Br4950   1.933       .  S
C4944      C4945   1.412       .  A
C4945      C4946   1.408       .  A
C4945     Br4952   1.934       .  S
C4946      C4947   1.416       .  A
C4946     Br4951   1.938       .  S
C4947      C4948   1.414       .  A
C4948     Br4949   1.929       .  S
C4953      C4954   1.421       .  A
C4953      C4958   1.427       .  A
C4953     Br4960   1.936       .  S
C4954      C4955   1.423       .  A
C4955      C4956   1.430       .  A
C4955     Br4962   1.932       .  S
C4956      C4957   1.423       .  A
C4956     Br4961   1.931       .  S
C4957      C4958   1.428       .  A
C4958     Br4959   1.927       .  S
C4963      C4964   1.418       .  A
C4963      C4968   1.420       .  A
C4963     Br4970   1.933       .  S
C4964      C4965   1.424       .  A
C4965      C4966   1.432       .  A
C4965     Br4972   1.930       .  S
C4966      C4967   1.422       .  A
C4966     Br4971   1.931       .  S
C4967      C4968   1.422       .  A
C4968     Br4969   1.936       .  S
C4973      C4974   1.413       .  A
C4973      C4978   1.409       .  A
C4973     Br4980   1.938       .  S
C4974      C4975   1.404       .  A
C4975      C4976   1.400       .  A
C4975     Br4982   1.922       .  S
C4976      C4977   1.422       .  A
C4976     Br4981   1.935       .  S
C4977      C4978   1.419       .  A
C4978     Br4979   1.929       .  S
C4983      C4984   1.405       .  A
C4983      C4988   1.396       .  A
C4983     Br4990   1.935       .  S
C4984      C4985   1.423       .  A
C4985      C4986   1.400       .  A
C4985     Br4992   1.930       .  S
C4986      C4987   1.398       .  A
C4986     Br4991   1.935       .  S
C4987      C4988   1.423       .  A
C4988     Br4989   1.946       .  S
