geometry optimzed in LAMMPS
_audit_creation_date              2020-12-01 
_audit_creation_method            'lammps2cif' 
_symmetry_space_group_name_H-M    'P1' 
_symmetry_Int_Tables_number       1 
_symmetry_cell_setting            triclinic 
loop_ 
_symmetry_equiv_pos_as_xyz 
  x,y,z 
_cell_length_a                    34.33913066 
_cell_length_b                    35.831560387980154 
_cell_length_c                    36.25532935300602 
_cell_angle_alpha                 91.95804049683521 
_cell_angle_beta                  86.78807408066616 
_cell_angle_gamma                 89.13884727481263 
loop_ 
_atom_site_label 
_atom_site_type_symbol 
_atom_site_fract_x 
_atom_site_fract_y 
_atom_site_fract_z 
_atom_site_charge 
O1          O  0.47499533  0.02571225  0.16522684    -0.81000
O2          O  0.04309296  0.50976435  0.30395431    -0.81100
O3          O  0.48621521  0.07209508  0.28196599    -0.81100
O4          O  0.06171469  0.50776123  0.21859195    -0.81000
O5          O  0.96552362  0.03561059  0.32476957    -0.81100
O6          O  0.03213832  0.97886833  0.17466920    -0.81100
O7          O  0.08326520  0.46670312  0.27753532    -0.81000
O8          O  0.48853564  0.06890866  0.20746224    -0.81100
C9          C  0.48626089  0.05864593  0.17397624     1.08600
C10         C  0.07635185  0.49188521  0.30271914     1.08500
C11         C  0.47828814  0.06678993  0.31550022     1.08700
C12         C  0.05944680  0.49787353  0.18478062     1.08500
O13         O  0.48147447  0.42682148  0.21323445    -0.81100
O14         O  0.43165501  0.47154894  0.28970770    -0.81100
O15         O  0.41403827  0.03682077  0.20706600    -0.81100
O16         O  0.01355542  0.43691569  0.29420346    -0.81000
O17         O  0.98995889  0.47087307  0.34232942    -0.81100
O18         O  0.41981634  0.97636594  0.20352056    -0.81100
O19         O  0.04303888  0.43082314  0.22223489    -0.81000
O20         O  0.41091612  0.03090978  0.28275218    -0.81100
Co21       Co  0.47633771  0.97693496  0.19242781     1.51500
Co22       Co  0.98678789  0.48994286  0.29531844     1.51700
Co23       Co  0.45230936  0.04954625  0.24533482     1.51600
Co24       Co  0.03525876  0.47642509  0.25614409     1.51500
O25         O  0.98433108  0.00220504  0.24260078    -1.43000
C26         C  0.01474638  0.41247583  0.21031241     1.08600
C27         C  0.40452573  0.99784311  0.29403885     1.08700
C28         C  0.40333240  0.00569383  0.19386064     1.08600
C29         C  0.00384420  0.44036544  0.32927535     1.08600
O30         O  0.44310642  0.19551173  0.98640067    -0.81000
O31         O  0.02345044  0.33349968  0.47002964    -0.81100
O32         O  0.42868602  0.29625982  0.04527823    -0.81100
O33         O  0.99505255  0.21849868  0.42088939    -0.81000
O34         O  0.45836330  0.32307608  0.50169955    -0.81100
O35         O  0.50966630  0.17296846  0.45684764    -0.81100
O36         O  0.00327917  0.29408363  0.42761676    -0.81000
O37         O  0.42026038  0.22286801  0.03664011    -0.81100
C38         C  0.41507567  0.20126138  0.00952303     1.08600
C39         C  0.01192117  0.32694781  0.43760284     1.08500
C40         C  0.42917327  0.32170345  0.02222975     1.08700
C41         C  0.99639648  0.18407121  0.42655824     1.08500
O42         O  0.05181871  0.20615086  0.01647464    -0.81100
O43         O  0.01508666  0.34153564  0.05055464    -0.81100
O44         O  0.49301755  0.20424334  0.06831628    -0.81100
O45         O  0.07593258  0.28415988  0.46048461    -0.81000
O46         O  0.06401779  0.28576548  0.51994565    -0.81100
O47         O  0.49224487  0.15751381  0.02666074    -0.81100
O48         O  0.06769989  0.20859476  0.45793987    -0.81000
O49         O  0.50610145  0.28609997  0.07528239    -0.81100
Co50       Co  0.49647819  0.20254318  0.00307664     1.51500
Co51       Co  0.00938366  0.30227969  0.51397440     1.51700
Co52       Co  0.46673071  0.25272922  0.04843742     1.51600
Co53       Co  0.03233697  0.25136161  0.44519982     1.51500
O54         O  0.99412349  0.25495417  0.49244952    -1.43000
C55         C  0.07479918  0.19735432  0.48975564     1.08600
C56         C  0.51333437  0.32157947  0.07733514     1.08700
C57         C  0.49253814  0.16850043  0.05997755     1.08600
C58         C  0.08647324  0.29290362  0.49240484     1.08600
O59         O  0.33179075  0.02190908  0.02916087    -0.81000
O60         O  0.18589082  0.44851943  0.49689820    -0.81100
O61         O  0.20693124  0.99993342  0.06712975    -0.81100
O62         O  0.27578060  0.43278730  0.50410690    -0.81000
O63         O  0.16321733  0.51736746  0.03063734    -0.81100
O64         O  0.32623676  0.46380776  0.98049223    -0.81100
O65         O  0.22055926  0.41325837  0.45540286    -0.81000
O66         O  0.28468632  0.00221777  0.06684115    -0.81100
C67         C  0.32013045  0.00882067  0.06011700     1.08600
C68         C  0.19238258  0.41643500  0.47947871     1.08500
C69         C  0.17181700  0.00731401  0.06218777     1.08700
C70         C  0.31241070  0.43540542  0.49787295     1.09100
O71         O  0.28842625  0.01595976  0.42985815    -0.81100
O72         O  0.19988281  0.05892374  0.47588483    -0.81100
O73         O  0.28422134  0.07707212  0.03743850    -0.81100
O74         O  0.20714194  0.48295810  0.43043783    -0.81000
O75         O  0.15156884  0.50292746  0.45872344    -0.81100
O76         O  0.29367575  0.06999311  0.97759572    -0.81100
O77         O  0.28125992  0.45476370  0.42856181    -0.81000
O78         O  0.20511437  0.07348668  0.03348817    -0.81100
Co79       Co  0.30710172  0.01685245  0.97933104     1.51500
Co80       Co  0.19729844  0.50503799  0.48485206     1.51700
Co81       Co  0.24548876  0.03583302  0.04866769     1.51600
Co82       Co  0.24101732  0.45941006  0.47127179     1.51500
O83         O  0.25201800  0.00783287  0.50041885    -1.43000
C84         C  0.29178347  0.48369208  0.41189048     1.08600
C85         C  0.19382550  0.08154972  0.00167400     1.08700
C86         C  0.29643208  0.08979447  0.00651665     1.08600
C87         C  0.17112042  0.49410235  0.42901894     1.08600
C88         C  0.35852301  0.34138325  0.52333912    -0.27200
C89         C  0.39747499  0.35056176  0.02117007    -0.15300
C90         C  0.40707650  0.38876194  0.02117002     0.35300
C91         C  0.37839430  0.41581143  0.01467538    -0.26700
C92         C  0.34032269  0.40567876  0.50895629    -0.15900
C93         C  0.32944634  0.36841533  0.51620232     0.36400
N94         N  0.28935249  0.35771694  0.51506374    -0.90200
H95         H  0.35044901  0.31265534  0.52749840     0.17500
H96         H  0.38644762  0.44492270  0.01406137     0.17500
N97         N  0.44621175  0.39996153  0.02768820    -0.89200
H98         H  0.28623874  0.32969154  0.52164241     0.34900
H99         H  0.28137205  0.35977470  0.48778807     0.40000
H100        H  0.45176791  0.39318595  0.05474798     0.39600
H101        H  0.44874951  0.42893344  0.02636074     0.34500
C102        C  0.36961090  0.16226993  0.97365077    -0.27200
C103        C  0.37839170  0.17967107  0.00736422    -0.15300
C104        C  0.35487302  0.17198216  0.03957313     0.35300
C105        C  0.32540522  0.14521368  0.03767932    -0.26700
C106        C  0.31934965  0.12496867  0.00475636    -0.15900
C107        C  0.34013610  0.13543617  0.97179804     0.36400
N108        N  0.33267062  0.11770954  0.93675994    -0.90200
H109        H  0.38695274  0.16849468  0.94878523     0.17500
H110        H  0.30903530  0.13820393  0.06283443     0.17500
N111        N  0.36262964  0.18919919  0.07476499    -0.89200
H112        H  0.35128735  0.12771253  0.91566304     0.34900
H113        H  0.30432502  0.12534787  0.93052988     0.40000
H114        H  0.38910172  0.17807279  0.08269717     0.39600
H115        H  0.34155772  0.18193257  0.09508209     0.34500
C116        C  0.10775523  0.35544429  0.51204358    -0.27200
C117        C  0.11814951  0.32049861  0.49550007    -0.15300
C118        C  0.15457586  0.31663349  0.47530304     0.35300
C119        C  0.17876886  0.34789902  0.47176166    -0.26700
C120        C  0.16772634  0.38325952  0.48773907    -0.15900
C121        C  0.13195511  0.38658595  0.50896208     0.36400
N122        N  0.11593236  0.42524343  0.02084353    -0.90200
H123        H  0.07915564  0.35936850  0.52538784     0.17500
H124        H  0.20611948  0.34455932  0.45549235     0.17500
N125        N  0.16748644  0.28192166  0.45718668    -0.89200
H126        H  0.13700397  0.42791828  0.54736403     0.34900
H127        H  0.09074317  0.42021400  0.53772898     0.40000
H128        H  0.14800438  0.26053922  0.46299138     0.39600
H129        H  0.19362421  0.27402257  0.46843258     0.34500
C130        C  0.14734928  0.13078053  0.53140242    -0.27200
C131        C  0.16839100  0.11546222  0.99803106    -0.15300
C132        C  0.15864616  0.12863953  0.96330349     0.35300
C133        C  0.13009269  0.15719442  0.96163015    -0.26700
C134        C  0.10902857  0.17184057  0.49438601    -0.15900
C135        C  0.11803493  0.15833654  0.52913601     0.36400
N136        N  0.09684180  0.17161598  0.56227512    -0.90200
H137        H  0.15266701  0.12009117  0.55829850     0.17500
H138        H  0.12225303  0.16623251  0.93477944     0.17500
N139        N  0.17696822  0.11246161  0.92974410    -0.89200
H140        H  0.11676911  0.18278409  0.58022450     0.34900
H141        H  0.08372920  0.14874977  0.57481729     0.40000
H142        H  0.20656850  0.11890427  0.92943627     0.39600
H143        H  0.16587521  0.12459103  0.90660107     0.34500
C144        C  0.34027534  0.01846259  0.32428530    -0.27200
C145        C  0.36803080  0.98969722  0.31637865    -0.15300
C146        C  0.36333342  0.95560185  0.33484265     0.35300
C147        C  0.33516520  0.45132182  0.36329764    -0.26700
C148        C  0.31144410  0.48224020  0.37449227    -0.15900
C149        C  0.31262658  0.51429140  0.35290003     0.36400
N150        N  0.28642674  0.54522368  0.36173470    -0.90200
H151        H  0.34222545  0.04430455  0.30967441     0.17500
H152        H  0.33403392  0.42623666  0.37917615     0.17500
N153        N  0.38877006  0.92417352  0.32578741    -0.89200
H154        H  0.26913565  0.05038970  0.33787670     0.34900
H155        H  0.30301639  0.56880459  0.36723567     0.40000
H156        H  0.37166650  0.90148230  0.31848453     0.39600
H157        H  0.40353233  0.41576011  0.34873023     0.34500
C158        C  0.12135853  0.52377793  0.39209474    -0.27200
C159        C  0.15248077  0.49810294  0.39333924    -0.15300
C160        C  0.16230854  0.47477821  0.36194029     0.35300
C161        C  0.13848960  0.47535412  0.33151005    -0.26700
C162        C  0.10501551  0.49870200  0.33165312    -0.15900
C163        C  0.09755062  0.52427188  0.36211359     0.36400
N164        N  0.06530910  0.55021572  0.36450141    -0.90200
H165        H  0.11418588  0.54267154  0.41557662     0.17500
H166        H  0.14513964  0.45600353  0.30832884     0.17500
N167        N  0.19430015  0.95003950  0.36213905    -0.89200
H168        H  0.03928083  0.53548804  0.36618026     0.34900
H169        H  0.06661440  0.56639886  0.34103866     0.40000
H170        H  0.21924884  0.96641847  0.36196189     0.39600
H171        H  0.19635925  0.93394357  0.33749052     0.34500
C172        C  0.07655696  0.01619502  0.12104037    -0.27200
C173        C  0.08946479  0.50713099  0.15622970    -0.15300
C174        C  0.12922848  0.49978459  0.16051411     0.35300
C175        C  0.15539019  0.49987585  0.12930501    -0.26700
C176        C  0.14259639  0.00832198  0.09404067    -0.15900
C177        C  0.10258973  0.01593823  0.08987026     0.36400
N178        N  0.08818578  0.02272595  0.05416421    -0.90200
H179        H  0.04567778  0.02009859  0.11749223     0.17500
H180        H  0.18590885  0.49358199  0.13267624     0.17500
N181        N  0.14246882  0.48989645  0.19587166    -0.89200
H182        H  0.05841537  0.02958541  0.05643068     0.34900
H183        H  0.09084980  0.99771329  0.03849009     0.40000
H184        H  0.13870584  0.51342579  0.21363749     0.39600
H185        H  0.17237516  0.48367239  0.19391320     0.34500
C186        C  0.38624825  0.03536020  0.13603129    -0.27200
C187        C  0.38123091  0.00533110  0.15983244    -0.15300
C188        C  0.35954736  0.97445792  0.14827179     0.35300
C189        C  0.34707764  0.47024872  0.11039562    -0.26700
C190        C  0.34597811  0.00558351  0.09108770    -0.15900
C191        C  0.36932530  0.03563954  0.10170672     0.36400
N192        N  0.37457010  0.06702478  0.07837633    -0.90200
H193        H  0.40386279  0.05878839  0.14402764     0.17500
H194        H  0.33350640  0.44538534  0.09951481     0.17500
N195        N  0.36684811  0.43463312  0.16316113    -0.89200
H196        H  0.39355601  0.08623137  0.08976928     0.34900
H197        H  0.34760449  0.08078766  0.07794293     0.40000
H198        H  0.38201758  0.41501082  0.14553898     0.39600
H199        H  0.33841072  0.42520616  0.16791868     0.34500
C200        C  0.50369300  0.12881940  0.33399928    -0.27200
C201        C  0.48235917  0.09709660  0.34372274    -0.15300
C202        C  0.96113107  0.09595165  0.38047177     0.35300
C203        C  0.96681580  0.12481722  0.40669576    -0.26700
C204        C  0.98845656  0.15631761  0.39728325    -0.15900
C205        C  0.50940174  0.15773625  0.35982508     0.36400
N206        N  0.53270660  0.18860037  0.34848065    -0.90200
H207        H  0.51667607  0.13097281  0.30622630     0.17500
H208        H  0.95418721  0.12284054  0.43463789     0.17500
N209        N  0.93746555  0.06466059  0.39040581    -0.89200
H210        H  0.55601239  0.19097828  0.36573885     0.34900
H211        H  0.51561027  0.21299794  0.35134149     0.40000
H212        H  0.91278058  0.06547104  0.37479062     0.39600
H213        H  0.92730663  0.06719907  0.41813131     0.34500
C214        C  0.49902142  0.34561657  0.37293589    -0.27200
C215        C  0.01013715  0.35664895  0.41024307    -0.15300
C216        C  0.02144790  0.39369064  0.41816050     0.35300
C217        C  0.02048977  0.41984227  0.39036654    -0.26700
C218        C  0.00818735  0.41011483  0.35503776    -0.15900
C219        C  0.49780184  0.37157638  0.34514786     0.36400
N220        N  0.48445906  0.35991163  0.30991071    -0.90200
H221        H  0.49040414  0.31729552  0.36641799     0.17500
H222        H  0.02894299  0.44833950  0.39646673     0.17500
N223        N  0.03390125  0.40479867  0.45407982    -0.89200
H224        H  0.50673119  0.36423709  0.28975464     0.34900
H225        H  0.46030640  0.37648834  0.30434826     0.40000
H226        H  0.00957596  0.40398534  0.47265033     0.39600
H227        H  0.04302115  0.43252648  0.45449335     0.34500
C228        C  0.49286341  0.33317563  0.14312580    -0.27200
C229        C  0.52010806  0.33926824  0.11376496    -0.15300
C230        C  0.05149245  0.36270545  0.12240308     0.35300
C231        C  0.05191581  0.38352184  0.15598019    -0.26700
C232        C  0.02135658  0.38100923  0.18316434    -0.15900
C233        C  0.49314733  0.35452607  0.17631986     0.36400
N234        N  0.46342018  0.34981992  0.20522383    -0.90200
H235        H  0.46973021  0.31340953  0.13926276     0.17500
H236        H  0.07448399  0.40393712  0.15960304     0.17500
N237        N  0.08244631  0.36607865  0.09455302    -0.89200
H238        H  0.44424850  0.32885557  0.19771759     0.34900
H239        H  0.47720542  0.34059158  0.22831243     0.40000
H240        H  0.09658667  0.34002616  0.09110989     0.39600
H241        H  0.10321911  0.38494780  0.10334707     0.34500
C242        C  0.00778816  0.15009811  0.12472348    -0.27200
C243        C  0.49396000  0.13979188  0.08859335    -0.15300
C244        C  0.48638941  0.10162096  0.08016904     0.35300
C245        C  0.48659432  0.07564665  0.10816790    -0.26700
C246        C  0.49283249  0.08652382  0.14481542    -0.15900
C247        C  0.00780150  0.12364103  0.15259148     0.36400
N248        N  0.02074207  0.13416225  0.18846136    -0.90200
H249        H  0.01698679  0.17834132  0.13074398     0.17500
H250        H  0.47995030  0.04683472  0.10142911     0.17500
N251        N  0.47702163  0.08926095  0.04356378    -0.89200
H252        H  0.02873963  0.16220381  0.18949558     0.34900
H253        H  0.04602259  0.11848714  0.19237317     0.40000
H254        H  0.44971842  0.10076495  0.03857917     0.39600
H255        H  0.47392854  0.06027379  0.04186417     0.34500
O256        O  0.47404649  0.02601091  0.66510928    -0.81000
O257        O  0.04135276  0.50898347  0.80489998    -0.81100
O258        O  0.48478708  0.07302680  0.78153648    -0.81100
O259        O  0.06133073  0.50857210  0.71874243    -0.81000
O260        O  0.96784793  0.03587317  0.82455920    -0.81100
O261        O  0.03352868  0.97983675  0.67495475    -0.81100
O262        O  0.08204128  0.46678899  0.77753024    -0.81000
O263        O  0.48673486  0.06985338  0.70709325    -0.81100
C264        C  0.48548850  0.05891309  0.67364597     1.08600
C265        C  0.07489858  0.49148765  0.80314628     1.08500
C266        C  0.47721263  0.06758259  0.81506700     1.08700
C267        C  0.05921604  0.49904751  0.68481182     1.08500
O268        O  0.48361783  0.42683633  0.71214853    -0.81100
O269        O  0.43439182  0.47145744  0.79072406    -0.81100
O270        O  0.41305936  0.03637595  0.70726080    -0.81100
O271        O  0.01219945  0.43721083  0.79349465    -0.81000
O272        O  0.98624395  0.47026968  0.84119096    -0.81100
O273        O  0.41982930  0.97603983  0.70377925    -0.81100
O274        O  0.04203979  0.43167573  0.72151471    -0.81000
O275        O  0.41017619  0.03019712  0.78264716    -0.81100
Co276      Co  0.47619539  0.97742149  0.69236981     1.51500
Co277      Co  0.98485513  0.49022068  0.79454215     1.51700
Co278      Co  0.45113067  0.04977846  0.74519595     1.51600
Co279      Co  0.03436325  0.47706939  0.75586754     1.51500
O280        O  0.98578224  0.00211924  0.74245523    -1.43000
C281        C  0.01374837  0.41354278  0.70925126     1.08600
C282        C  0.40454571  0.99683231  0.79350434     1.08700
C283        C  0.40287380  0.00508894  0.69410675     1.08600
C284        C  0.00143339  0.44020697  0.82838704     1.08600
O285        O  0.44280516  0.19532185  0.48801257    -0.81000
O286        O  0.02258282  0.33438694  0.97002694    -0.81100
O287        O  0.42986658  0.29663799  0.54754282    -0.81100
O288        O  0.99667676  0.21867024  0.92068542    -0.81000
O289        O  0.45858873  0.32394266  0.00087219    -0.81100
O290        O  0.51004979  0.17266440  0.95674713    -0.81100
O291        O  0.00306007  0.29448828  0.92773796    -0.81000
O292        O  0.42098080  0.22318650  0.53849122    -0.81100
C293        C  0.41524904  0.20141824  0.51163245     1.08600
C294        C  0.01145632  0.32746567  0.93748521     1.08500
C295        C  0.42963289  0.32154122  0.52389173     1.08700
C296        C  0.99889502  0.18428140  0.92643082     1.08500
O297        O  0.05024551  0.20484770  0.51626912    -0.81100
O298        O  0.01640211  0.34069832  0.55045158    -0.81100
O299        O  0.49441365  0.20374844  0.56854603    -0.81100
O300        O  0.07560616  0.28584485  0.96118877    -0.81000
O301        O  0.06333547  0.28718256  0.02058960    -0.81100
O302        O  0.49360365  0.15743394  0.52641359    -0.81100
O303        O  0.06897536  0.21026347  0.95812130    -0.81000
O304        O  0.50801202  0.28538523  0.57604717    -0.81100
Co305      Co  0.49658502  0.20269479  0.50338604     1.51500
Co306      Co  0.00866742  0.30304778  0.01408199     1.51700
Co307      Co  0.46784406  0.25261809  0.54959971     1.51600
Co308      Co  0.03285211  0.25234726  0.94543183     1.51500
O309        O  0.99427702  0.25526756  0.99249852    -1.43000
C310        C  0.07625557  0.19880270  0.98978685     1.08600
C311        C  0.51503835  0.32088201  0.57822486     1.08700
C312        C  0.49439090  0.16808735  0.55975052     1.08600
C313        C  0.08583063  0.29460530  0.99320016     1.08600
O314        O  0.33133958  0.02266288  0.53010293    -0.81000
O315        O  0.18543998  0.44993161  0.99648781    -0.81100
O316        O  0.20707408  0.99932964  0.56768623    -0.81100
O317        O  0.27551340  0.43356036  0.00393469    -0.81000
O318        O  0.16319697  0.51641111  0.53067121    -0.81100
O319        O  0.32615012  0.46321513  0.48044959    -0.81100
O320        O  0.22009030  0.41429382  0.95525701    -0.81000
O321        O  0.28460375  0.00209737  0.56779276    -0.81100
C322        C  0.31997587  0.00879192  0.56076596     1.08600
C323        C  0.19168166  0.41784315  0.97904451     1.08500
C324        C  0.17203096  0.00719461  0.56318680     1.08700
C325        C  0.31219496  0.43600552  0.99769739     1.09100
O326        O  0.28980555  0.01336717  0.92838443    -0.81100
O327        O  0.20023368  0.05859414  0.97446019    -0.81100
O328        O  0.28383556  0.07747380  0.54010653    -0.81100
O329        O  0.20691291  0.48394302  0.93024931    -0.81000
O330        O  0.15164301  0.50487927  0.95845577    -0.81100
O331        O  0.29233965  0.07182005  0.48015955    -0.81100
O332        O  0.28115518  0.45533292  0.92881839    -0.81000
O333        O  0.20476356  0.07356591  0.53506434    -0.81100
Co334      Co  0.30640176  0.01866583  0.48043570     1.51500
Co335      Co  0.19731647  0.50640448  0.98473071     1.51700
Co336      Co  0.24524530  0.03583695  0.55014369     1.51600
Co337      Co  0.24075501  0.46031340  0.97117665     1.51500
O338        O  0.25231046  0.00712618  0.99930645    -1.43000
C339        C  0.29245360  0.48393843  0.91207797     1.08600
C340        C  0.19347814  0.08171379  0.50322934     1.08700
C341        C  0.29566094  0.09093079  0.50943941     1.08600
C342        C  0.17097917  0.49544453  0.92879057     1.08600
C343        C  0.35845422  0.34059450  0.01723785    -0.27200
C344        C  0.39817998  0.35066073  0.52269738    -0.15300
C345        C  0.40854193  0.38821472  0.51746243     0.35300
C346        C  0.37979288  0.41498154  0.51063141    -0.26700
C347        C  0.33977358  0.40598306  0.00850991    -0.15900
C348        C  0.32949914  0.36787418  0.01061835     0.36400
N349        N  0.29026612  0.35672944  0.00457964    -0.90200
H350        H  0.35096864  0.31133596  0.01746533     0.17500
H351        H  0.38853666  0.44348287  0.50619567     0.17500
N352        N  0.44858360  0.39908579  0.51895596    -0.89200
H353        H  0.28745605  0.32794894  0.00747080     0.34900
H354        H  0.28487250  0.36199538  0.97711937     0.40000
H355        H  0.45680618  0.39536478  0.54592994     0.39600
H356        H  0.45155763  0.42751009  0.51400891     0.34500
C357        C  0.36785028  0.16419934  0.47653879    -0.27200
C358        C  0.37840315  0.18010435  0.51031947    -0.15300
C359        C  0.35652111  0.17119485  0.54312683     0.35300
C360        C  0.32676803  0.14467442  0.54152429    -0.26700
C361        C  0.31882991  0.12597057  0.50820983    -0.15900
C362        C  0.33807764  0.13768517  0.47495561     0.36400
N363        N  0.32872500  0.12151607  0.43975756    -0.90200
H364        H  0.38401052  0.17138245  0.45130464     0.17500
H365        H  0.31165581  0.13664309  0.56698392     0.17500
N366        N  0.36626715  0.18689120  0.57841571    -0.89200
H367        H  0.34635424  0.13230485  0.41834354     0.34900
H368        H  0.30006023  0.12960006  0.43517610     0.40000
H369        H  0.39333880  0.17555096  0.58442947     0.39600
H370        H  0.34641566  0.17861768  0.59936832     0.34500
C371        C  0.10607297  0.35790787  0.01122018    -0.27200
C372        C  0.11719210  0.32241064  0.99642392    -0.15300
C373        C  0.15406125  0.31801932  0.97715550     0.35300
C374        C  0.17819422  0.34921837  0.97296647    -0.26700
C375        C  0.16648606  0.38507407  0.98712856    -0.15900
C376        C  0.12993877  0.38914871  0.00692585     0.36400
N377        N  0.11903095  0.42193044  0.52567851    -0.90200
H378        H  0.07697380  0.36219392  0.02343595     0.17500
H379        H  0.20607730  0.34538906  0.95768457     0.17500
N380        N  0.16747537  0.28276481  0.96055538    -0.89200
H381        H  0.08922018  0.42311483  0.03588767     0.34900
H382        H  0.11045591  0.44122156  0.99803602     0.40000
H383        H  0.14789745  0.26152447  0.96665255     0.39600
H384        H  0.19327522  0.27543247  0.97269807     0.34500
C385        C  0.15004009  0.13252905  0.03018664    -0.27200
C386        C  0.16782757  0.11538229  0.49959813    -0.15300
C387        C  0.15993951  0.12977919  0.46488434     0.35300
C388        C  0.13096795  0.15786821  0.46274659    -0.26700
C389        C  0.11029414  0.17285075  0.99374613    -0.15900
C390        C  0.12105868  0.16052964  0.02838291     0.36400
N391        N  0.10205321  0.17559020  0.06192722    -0.90200
H392        H  0.15679102  0.12289621  0.05714154     0.17500
H393        H  0.12458523  0.16790069  0.43585703     0.17500
N394        N  0.18067152  0.11532197  0.43177088    -0.89200
H395        H  0.12331738  0.18699440  0.07827653     0.34900
H396        H  0.08911250  0.15360104  0.07608357     0.40000
H397        H  0.20999550  0.12221006  0.43354855     0.39600
H398        H  0.17092723  0.12832140  0.40851308     0.34500
C399        C  0.33875928  0.01491123  0.82212990    -0.27200
C400        C  0.36798719  0.98735273  0.81515360    -0.15300
C401        C  0.36449362  0.95332556  0.83398398     0.35300
C402        C  0.33986944  0.45182889  0.86719446    -0.26700
C403        C  0.31344088  0.48147334  0.87539842    -0.15900
C404        C  0.31289333  0.51176682  0.85164158     0.36400
N405        N  0.28443376  0.54126957  0.85798918    -0.90200
H406        H  0.33962167  0.04047106  0.80699942     0.17500
H407        H  0.34032754  0.42821748  0.88509190     0.17500
N408        N  0.39115320  0.92270226  0.82538099    -0.89200
H409        H  0.26588699  0.04346282  0.83446904     0.34900
H410        H  0.29915496  0.56628400  0.86206919     0.40000
H411        H  0.37497149  0.89930361  0.81826588     0.39600
H412        H  0.41136234  0.42147583  0.85742966     0.34500
C413        C  0.12140599  0.52500488  0.89137009    -0.27200
C414        C  0.15210899  0.49891953  0.89309606    -0.15300
C415        C  0.16126457  0.47469944  0.86220588     0.35300
C416        C  0.13691895  0.47454287  0.83211428    -0.26700
C417        C  0.10386978  0.49841168  0.83185089    -0.15900
C418        C  0.09742023  0.52515102  0.86145949     0.36400
N419        N  0.06619718  0.55218486  0.86290694    -0.90200
H420        H  0.11485580  0.54468818  0.91434246     0.17500
H421        H  0.14295388  0.45441241  0.80947224     0.17500
N422        N  0.19453777  0.94825995  0.86218569    -0.89200
H423        H  0.03966571  0.53839729  0.86540741     0.34900
H424        H  0.06789053  0.56721476  0.83866463     0.40000
H425        H  0.22016366  0.96366406  0.86157677     0.39600
H426        H  0.19603356  0.93139834  0.83801970     0.34500
C427        C  0.07817641  0.01951196  0.62332534    -0.27200
C428        C  0.08946770  0.50837114  0.65653586    -0.15300
C429        C  0.12900630  0.49991467  0.66074011     0.35300
C430        C  0.15523413  0.49978413  0.62957251    -0.26700
C431        C  0.14336856  0.00883710  0.59535282    -0.15900
C432        C  0.10377271  0.01873463  0.59189114     0.36400
N433        N  0.08924802  0.02700169  0.55657078    -0.90200
H434        H  0.04746013  0.02503461  0.62029329     0.17500
H435        H  0.18556365  0.49261973  0.63288060     0.17500
N436        N  0.14184221  0.48896495  0.69591968    -0.89200
H437        H  0.05993890  0.03556595  0.55941593     0.34900
H438        H  0.09008349  0.00213986  0.54058745     0.40000
H439        H  0.13867600  0.51222967  0.71409777     0.39600
H440        H  0.17156880  0.48197344  0.69390791     0.34500
C441        C  0.38303173  0.03612631  0.63805798    -0.27200
C442        C  0.38085380  0.00452759  0.66009995    -0.15300
C443        C  0.36217873  0.97245103  0.64669180     0.35300
C444        C  0.34979503  0.47083637  0.60934506    -0.26700
C445        C  0.34606540  0.00532981  0.59129803    -0.15900
C446        C  0.36621069  0.03663097  0.60387095     0.36400
N447        N  0.36798130  0.06976945  0.58289062    -0.90200
H448        H  0.39831377  0.06074477  0.64709595     0.17500
H449        H  0.33804983  0.44551778  0.59744868     0.17500
N450        N  0.37286346  0.43439221  0.66017629    -0.89200
H451        H  0.39733675  0.07583766  0.57731439     0.34900
H452        H  0.35543261  0.09176425  0.59938023     0.40000
H453        H  0.38914562  0.41650943  0.64158969     0.39600
H454        H  0.34527612  0.42293553  0.66474176     0.34500
C455        C  0.50215880  0.12980946  0.83336145    -0.27200
C456        C  0.48147665  0.09777283  0.84331426    -0.15300
C457        C  0.96345674  0.09660220  0.87987722     0.35300
C458        C  0.96908915  0.12544269  0.90610495    -0.26700
C459        C  0.99194410  0.15625352  0.89714856    -0.15900
C460        C  0.50849707  0.15842026  0.85931105     0.36400
N461        N  0.53124120  0.18956572  0.84770389    -0.90200
H462        H  0.51425961  0.13239794  0.80532606     0.17500
H463        H  0.95536911  0.12403541  0.93368633     0.17500
N464        N  0.93876518  0.06591660  0.88942179    -0.89200
H465        H  0.55509247  0.19189429  0.86430868     0.34900
H466        H  0.51403406  0.21384636  0.85122677     0.40000
H467        H  0.91452439  0.06724294  0.87325901     0.39600
H468        H  0.92801663  0.06875396  0.91695122     0.34500
C469        C  0.50418747  0.34568246  0.87180537    -0.27200
C470        C  0.00986899  0.35680827  0.90971749    -0.15300
C471        C  0.01615468  0.39480714  0.91864753     0.35300
C472        C  0.01450421  0.42088804  0.89086998    -0.26700
C473        C  0.00649880  0.41016292  0.85441376    -0.15900
C474        C  0.50298532  0.37207769  0.84442086     0.36400
N475        N  0.49290428  0.36013145  0.80814373    -0.90200
H476        H  0.49815668  0.31692781  0.86421076     0.17500
H477        H  0.01906358  0.45010036  0.89788910     0.17500
N478        N  0.02392675  0.40699178  0.95568361    -0.89200
H479        H  0.51609457  0.36597717  0.78946207     0.34900
H480        H  0.46822386  0.37529583  0.80128446     0.40000
H481        H  0.99850727  0.40327434  0.97221425     0.39600
H482        H  0.02952970  0.43562976  0.95701223     0.34500
C483        C  0.49908264  0.33010496  0.64558926    -0.27200
C484        C  0.52333416  0.33841841  0.61455804    -0.15300
C485        C  0.05251313  0.36123909  0.62307238     0.35300
C486        C  0.05207591  0.38285159  0.65626724    -0.26700
C487        C  0.02038899  0.38164914  0.68246596    -0.15900
C488        C  0.49966359  0.35184756  0.67864115     0.36400
N489        N  0.47305190  0.34458477  0.70945865    -0.90200
H490        H  0.47767456  0.30836387  0.64320586     0.17500
H491        H  0.07502999  0.40276652  0.66030568     0.17500
N492        N  0.08472230  0.36308108  0.59628816    -0.89200
H493        H  0.45565641  0.32176235  0.70330661     0.34900
H494        H  0.48976055  0.33682627  0.73127696     0.40000
H495        H  0.09803284  0.33658688  0.59387256     0.39600
H496        H  0.10571745  0.38147330  0.60553539     0.34500
C497        C  0.00411584  0.15080589  0.62496962    -0.27200
C498        C  0.49642874  0.13906441  0.58788847    -0.15300
C499        C  0.48646882  0.10143120  0.57967386     0.35300
C500        C  0.48533435  0.07558129  0.60778854    -0.26700
C501        C  0.49367939  0.08595742  0.64406799    -0.15900
C502        C  0.00387729  0.12475229  0.65311040     0.36400
N503        N  0.01477764  0.13627999  0.68943520    -0.90200
H504        H  0.01256413  0.17928293  0.63099533     0.17500
H505        H  0.47614482  0.04739961  0.60146250     0.17500
N506        N  0.47615837  0.08956712  0.54319222    -0.89200
H507        H  0.02117048  0.16472942  0.69058781     0.34900
H508        H  0.04062090  0.12198674  0.69438754     0.40000
H509        H  0.44959207  0.10258941  0.53820713     0.39600
H510        H  0.47130632  0.06083687  0.54166474     0.34500
O511        O  0.47322624  0.52480207  0.16432480    -0.81000
O512        O  0.04080312  0.00897811  0.30598630    -0.81100
O513        O  0.48500023  0.57155957  0.28081257    -0.81100
O514        O  0.06144011  0.00964070  0.21887394    -0.81000
O515        O  0.96751019  0.53509752  0.32443330    -0.81100
O516        O  0.03209377  0.47727660  0.17435690    -0.81100
O517        O  0.08255573  0.96812460  0.27785437    -0.81000
O518        O  0.48674667  0.56812302  0.20642913    -0.81100
C519        C  0.48453739  0.55773459  0.17299308     1.08600
C520        C  0.07459248  0.99191342  0.30415362     1.08500
C521        C  0.47782266  0.56589970  0.31440124     1.08700
C522        C  0.05932923  0.99969668  0.18502872     1.08500
O523        O  0.47983982  0.92751451  0.21430630    -0.81100
O524        O  0.43131979  0.97315572  0.29078757    -0.81100
O525        O  0.41288340  0.53418639  0.20685482    -0.81100
O526        O  0.01320063  0.93779721  0.29360270    -0.81000
O527        O  0.98591980  0.96943669  0.34176212    -0.81100
O528        O  0.42007349  0.47388984  0.20325544    -0.81100
O529        O  0.04253741  0.93251222  0.22210247    -0.81000
O530        O  0.41068094  0.52915830  0.28211696    -0.81100
Co531      Co  0.47626930  0.47606108  0.19147599     1.51500
Co532      Co  0.98431737  0.99021812  0.29535318     1.51700
Co533      Co  0.45128395  0.54818972  0.24451848     1.51600
Co534      Co  0.03482406  0.97803058  0.25623218     1.51500
O535        O  0.98472064  0.50061975  0.24237276    -1.43000
C536        C  0.01424707  0.91420967  0.21003920     1.08600
C537        C  0.40463772  0.49600542  0.29317097     1.08700
C538        C  0.40277992  0.50278896  0.19372388     1.08600
C539        C  0.00223581  0.93999864  0.32845450     1.08600
O540        O  0.44256537  0.69595233  0.98772438    -0.81000
O541        O  0.02357305  0.83296151  0.46880696    -0.81100
O542        O  0.42912301  0.79612952  0.04739133    -0.81100
O543        O  0.99787687  0.71716103  0.42040619    -0.81000
O544        O  0.46085410  0.82296815  0.49984815    -0.81100
O545        O  0.51169317  0.67192798  0.45609126    -0.81100
O546        O  0.00461381  0.79304914  0.42631971    -0.81000
O547        O  0.42096479  0.72249156  0.03883955    -0.81100
C548        C  0.41527933  0.70112348  0.01168440     1.08600
C549        C  0.01306523  0.82602305  0.43608571     1.08500
C550        C  0.42885999  0.82140645  0.02416616     1.08700
C551        C  0.00010919  0.68283326  0.42636170     1.08500
O552        O  0.05233583  0.70531381  0.01742604    -0.81100
O553        O  0.01536894  0.84088239  0.05020695    -0.81100
O554        O  0.49430580  0.70420158  0.06888498    -0.81100
O555        O  0.07663117  0.78453431  0.46088752    -0.81000
O556        O  0.06341990  0.78619586  0.52018113    -0.81100
O557        O  0.49241677  0.65776735  0.02698979    -0.81100
O558        O  0.07012520  0.70906760  0.45827931    -0.81000
O559        O  0.50704199  0.78607804  0.07575333    -0.81100
Co560      Co  0.49607383  0.70280965  0.00348469     1.51500
Co561      Co  0.00894546  0.80212797  0.51294740     1.51700
Co562      Co  0.46738905  0.75262151  0.04968061     1.51600
Co563      Co  0.03399164  0.75098825  0.44492678     1.51500
O564        O  0.99482656  0.75429839  0.49166786    -1.43000
C565        C  0.07748361  0.69851623  0.49025663     1.08600
C566        C  0.51285283  0.82177638  0.07796586     1.08700
C567        C  0.49302561  0.66856695  0.06034413     1.08600
C568        C  0.08629821  0.79353520  0.49303438     1.08600
O569        O  0.33158909  0.52103915  0.02978592    -0.81000
O570        O  0.18629455  0.94863287  0.49829119    -0.81100
O571        O  0.20675074  0.49877370  0.06684890    -0.81100
O572        O  0.27695265  0.93402301  0.50466748    -0.81000
O573        O  0.16306670  0.01641357  0.03034329    -0.81100
O574        O  0.32645334  0.96311052  0.98100418    -0.81100
O575        O  0.22108582  0.91342812  0.45678432    -0.81000
O576        O  0.28467160  0.49993162  0.06685655    -0.81100
C577        C  0.32009405  0.50664253  0.06012760     1.08600
C578        C  0.19252826  0.91676043  0.48045802     1.08500
C579        C  0.17177167  0.50692156  0.06211040     1.08700
C580        C  0.31346676  0.93690296  0.49769967     1.09100
O581        O  0.28898266  0.51447134  0.42940260    -0.81100
O582        O  0.20079179  0.55922393  0.47562166    -0.81100
O583        O  0.28503218  0.57592523  0.03997211    -0.81100
O584        O  0.20638291  0.98276162  0.43143569    -0.81000
O585        O  0.15094869  0.00220654  0.46023875    -0.81100
O586        O  0.29333666  0.57067625  0.97991383    -0.81100
O587        O  0.28103112  0.95608993  0.42911054    -0.81000
O588        O  0.20605557  0.57367225  0.03570619    -0.81100
Co589      Co  0.30692256  0.51752843  0.98003819     1.51500
Co590      Co  0.19701616  0.00502044  0.48571449     1.51700
Co591      Co  0.24580332  0.53480219  0.04985987     1.51600
Co592      Co  0.24120147  0.96001527  0.47217574     1.51500
O593        O  0.25217626  0.50683510  0.49994270    -1.43000
C594        C  0.29122282  0.98512394  0.41238324     1.08600
C595        C  0.19541498  0.58299944  0.00400213     1.08700
C596        C  0.29684831  0.58950577  0.00932689     1.08600
C597        C  0.17017054  0.99351006  0.43036157     1.08600
C598        C  0.36024413  0.84273111  0.52245099    -0.27200
C599        C  0.39719355  0.85032536  0.02378989    -0.15300
C600        C  0.40698019  0.88845284  0.02325520     0.35300
C601        C  0.37848906  0.91547554  0.01611756    -0.26700
C602        C  0.34191848  0.90685328  0.50732177    -0.15900
C603        C  0.33104302  0.86994503  0.51610463     0.36400
N604        N  0.29069850  0.85972084  0.51734694    -0.90200
H605        H  0.35192501  0.81442204  0.52838107     0.17500
H606        H  0.38674222  0.94449418  0.01481133     0.17500
N607        N  0.44612901  0.89957276  0.02982185    -0.89200
H608        H  0.28762979  0.83194598  0.52479680     0.34900
H609        H  0.28120043  0.86115581  0.49051309     0.40000
H610        H  0.45148517  0.89313036  0.05702359     0.39600
H611        H  0.44881213  0.92849565  0.02814488     0.34500
C612        C  0.36871345  0.66310232  0.97661686    -0.27200
C613        C  0.37911196  0.67898286  0.01045090    -0.15300
C614        C  0.35798319  0.66920348  0.04334173     0.35300
C615        C  0.32822961  0.64277126  0.04162022    -0.26700
C616        C  0.32020598  0.62433738  0.00821477    -0.15900
C617        C  0.33945210  0.63612713  0.97498330     0.36400
N618        N  0.33058740  0.61965784  0.93976245    -0.90200
H619        H  0.38461862  0.67067897  0.95137531     0.17500
H620        H  0.31314064  0.63461843  0.06702944     0.17500
N621        N  0.36856312  0.68388905  0.07876520    -0.89200
H622        H  0.34830797  0.63046087  0.91841993     0.34900
H623        H  0.30192265  0.62746473  0.93488172     0.40000
H624        H  0.39592821  0.67249909  0.08378078     0.39600
H625        H  0.34935162  0.67485119  0.09986903     0.34500
C626        C  0.10453813  0.85804937  0.50808475    -0.27200
C627        C  0.11705990  0.82186264  0.49653520    -0.15300
C628        C  0.15539242  0.81667606  0.48054366     0.35300
C629        C  0.17982355  0.84775897  0.47671966    -0.26700
C630        C  0.16686155  0.88419464  0.48785436    -0.15900
C631        C  0.12852391  0.88916385  0.50371828     0.36400
N632        N  0.11332340  0.92569742  0.01431786    -0.90200
H633        H  0.07460877  0.86273284  0.51792549     0.17500
H634        H  0.20898848  0.84338202  0.46417038     0.17500
N635        N  0.17014048  0.78067089  0.46706285    -0.89200
H636        H  0.08479084  0.92461258  0.52558724     0.34900
H637        H  0.11060949  0.94005714  0.48881958     0.40000
H638        H  0.14988801  0.75978281  0.47229404     0.39600
H639        H  0.19428622  0.77411282  0.48208206     0.34500
C640        C  0.14920910  0.63104283  0.53180256    -0.27200
C641        C  0.17120253  0.61778893  0.00086292    -0.15300
C642        C  0.16357527  0.63256194  0.96626584     0.35300
C643        C  0.13453890  0.66057597  0.96419467    -0.26700
C644        C  0.11215721  0.67351078  0.49511088    -0.15900
C645        C  0.12024559  0.65897684  0.52966729     0.36400
N646        N  0.09830162  0.67142685  0.56267867    -0.90200
H647        H  0.15356208  0.61935092  0.55846491     0.17500
H648        H  0.12792994  0.67041980  0.93729543     0.17500
N649        N  0.18453403  0.61841986  0.93315199    -0.89200
H650        H  0.11780393  0.68193085  0.58141189     0.34900
H651        H  0.08474449  0.64827769  0.57424493     0.40000
H652        H  0.21386463  0.62517337  0.93526368     0.39600
H653        H  0.17507419  0.63175443  0.90997867     0.34500
C654        C  0.34078719  0.51671537  0.32361716    -0.27200
C655        C  0.36828176  0.48777126  0.31555905    -0.15300
C656        C  0.36362030  0.45376796  0.33412707     0.35300
C657        C  0.33482152  0.95298651  0.36391129    -0.26700
C658        C  0.31078731  0.98369368  0.37494199    -0.15900
C659        C  0.31167723  0.01564123  0.35321091     0.36400
N660        N  0.28455643  0.04596448  0.36145751    -0.90200
H661        H  0.34281135  0.54255728  0.30900713     0.17500
H662        H  0.33382166  0.92790292  0.37979994     0.17500
N663        N  0.38906829  0.42233269  0.32510261    -0.89200
H664        H  0.27071800  0.55023974  0.33847114     0.34900
H665        H  0.30038480  0.06999312  0.36706862     0.40000
H666        H  0.37195621  0.39959413  0.31796610     0.39600
H667        H  0.40311540  0.91748736  0.34944884     0.34500
C668        C  0.11879673  0.02215847  0.39454900    -0.27200
C669        C  0.15085597  0.99741481  0.39496888    -0.15300
C670        C  0.16107230  0.97500894  0.36302415     0.35300
C671        C  0.13704125  0.97572798  0.33272688    -0.26700
C672        C  0.10289748  0.99825050  0.33354489    -0.15900
C673        C  0.09471267  0.02269234  0.36477166     0.36400
N674        N  0.06157594  0.04758268  0.36807730    -0.90200
H675        H  0.11118390  0.04033256  0.41847658     0.17500
H676        H  0.14416667  0.95716563  0.30902784     0.17500
N677        N  0.19481191  0.44900411  0.36182949    -0.89200
H678        H  0.03607407  0.03201380  0.36919281     0.34900
H679        H  0.06225653  0.06466053  0.34526847     0.40000
H680        H  0.22022157  0.46472544  0.36140182     0.39600
H681        H  0.19658062  0.43231734  0.33754548     0.34500
C682        C  0.07687785  0.51604979  0.12139916    -0.27200
C683        C  0.08922876  0.00909018  0.15631229    -0.15300
C684        C  0.12921075  0.00354682  0.16102597     0.35300
C685        C  0.15548409  0.00313815  0.12983082    -0.26700
C686        C  0.14259406  0.50722414  0.09391482    -0.15900
C687        C  0.10281629  0.51625913  0.09019000     0.36400
N688        N  0.08854446  0.52496950  0.05488325    -0.90200
H689        H  0.04611127  0.52108622  0.11818808     0.17500
H690        H  0.18617781  0.99812666  0.13354059     0.17500
N691        N  0.14267238  0.99598429  0.19689953    -0.89200
H692        H  0.05899273  0.53268383  0.05753021     0.34900
H693        H  0.09035372  0.50051895  0.03828684     0.40000
H694        H  0.13783267  0.02017921  0.21357810     0.39600
H695        H  0.17278882  0.99094057  0.19531246     0.34500
C696        C  0.37944045  0.53487327  0.13963688    -0.27200
C697        C  0.38039219  0.50205219  0.15983756    -0.15300
C698        C  0.36493456  0.46908347  0.14439463     0.35300
C699        C  0.34157273  0.97511528  0.11438191    -0.26700
C700        C  0.34594422  0.50340619  0.09083052    -0.15900
C701        C  0.36286914  0.53565758  0.10539215     0.36400
N702        N  0.36152926  0.56995674  0.08635396    -0.90200
H703        H  0.39220311  0.56032322  0.15008037     0.17500
H704        H  0.32342489  0.95199476  0.10650624     0.17500
N705        N  0.35500937  0.94281829  0.17111238    -0.89200
H706        H  0.39013140  0.57886742  0.08155018     0.34900
H707        H  0.34683701  0.58989294  0.10391737     0.40000
H708        H  0.36580386  0.91921277  0.15586189     0.39600
H709        H  0.32519569  0.93920184  0.17708187     0.34500
C710        C  0.49863131  0.62994069  0.33201700    -0.27200
C711        C  0.48231180  0.59599619  0.34286370    -0.15300
C712        C  0.96530089  0.59449467  0.38041296     0.35300
C713        C  0.97176114  0.62296705  0.40678082    -0.26700
C714        C  0.99288013  0.65469291  0.39719620    -0.15900
C715        C  0.50495666  0.65875384  0.35781208     0.36400
N716        N  0.52318742  0.69191183  0.34482742    -0.90200
H717        H  0.50723427  0.63404539  0.30324073     0.17500
H718        H  0.95977965  0.62067448  0.43490826     0.17500
N719        N  0.94194423  0.56307695  0.39061674    -0.89200
H720        H  0.54853216  0.69622340  0.35899404     0.34900
H721        H  0.50401432  0.71457062  0.35033794     0.40000
H722        H  0.91661582  0.56424002  0.37591633     0.39600
H723        H  0.93284000  0.56513169  0.41862440     0.34500
C724        C  0.49837707  0.84571929  0.37324338    -0.27200
C725        C  0.01221836  0.85549792  0.40834881    -0.15300
C726        C  0.02042352  0.89318157  0.41717749     0.35300
C727        C  0.01839238  0.91963372  0.38976671    -0.26700
C728        C  0.00849245  0.90954696  0.35374448    -0.15900
C729        C  0.49601346  0.87202722  0.34590371     0.36400
N730        N  0.48050084  0.86101415  0.31139650    -0.90200
H731        H  0.48854011  0.81771553  0.36710405     0.17500
H732        H  0.02394750  0.94866315  0.39676662     0.17500
N733        N  0.03058038  0.90472563  0.45373528    -0.89200
H734        H  0.50181775  0.86506410  0.29027373     0.34900
H735        H  0.45638306  0.87816511  0.30713125     0.40000
H736        H  0.00566199  0.90229755  0.47132453     0.39600
H737        H  0.03783176  0.93295228  0.45480050     0.34500
C738        C  0.49089437  0.83356576  0.14354908    -0.27200
C739        C  0.51857624  0.83975095  0.11451648    -0.15300
C740        C  0.04971793  0.86650427  0.12055028     0.35300
C741        C  0.04998893  0.88766813  0.15390942    -0.26700
C742        C  0.02100100  0.88331958  0.18225534    -0.15900
C743        C  0.49067596  0.85485738  0.17688076     0.36400
N744        N  0.46030991  0.85034846  0.20523894    -0.90200
H745        H  0.46785268  0.81379005  0.13928847     0.17500
H746        H  0.07114787  0.90959843  0.15659686     0.17500
N747        N  0.07867397  0.87233327  0.09133913    -0.89200
H748        H  0.44105678  0.82963454  0.19726591     0.34900
H749        H  0.47346141  0.84085806  0.22856857     0.40000
H750        H  0.09531490  0.84768423  0.08755259     0.39600
H751        H  0.09781064  0.89329626  0.09897172     0.34500
C752        C  0.00577496  0.64896854  0.12554583    -0.27200
C753        C  0.49359717  0.63960959  0.08862405    -0.15300
C754        C  0.48076163  0.60285592  0.08064155     0.35300
C755        C  0.48044665  0.57634551  0.10810782    -0.26700
C756        C  0.49138148  0.58551327  0.14387928    -0.15900
C757        C  0.00486177  0.62253305  0.15338011     0.36400
N758        N  0.01536545  0.63353981  0.18997437    -0.90200
H759        H  0.01419924  0.67735184  0.13204947     0.17500
H760        H  0.46976477  0.54868516  0.10181718     0.17500
N761        N  0.46662455  0.59270304  0.04507908    -0.89200
H762        H  0.02208989  0.66188998  0.19151292     0.34900
H763        H  0.04095039  0.61888621  0.19510405     0.40000
H764        H  0.44087019  0.60801568  0.04216096     0.39600
H765        H  0.45916751  0.56452671  0.04361243     0.34500
O766        O  0.47525008  0.52588197  0.66503560    -0.81000
O767        O  0.04307127  0.00957216  0.80496117    -0.81100
O768        O  0.48464166  0.57243454  0.78202697    -0.81100
O769        O  0.06293631  0.00895913  0.72021459    -0.81000
O770        O  0.96597661  0.53538082  0.82402601    -0.81100
O771        O  0.03186127  0.47866652  0.67403159    -0.81100
O772        O  0.08319299  0.96646819  0.77839601    -0.81000
O773        O  0.48735656  0.56949622  0.70742290    -0.81100
C774        C  0.48578823  0.55901227  0.67391656     1.08600
C775        C  0.07635118  0.99172239  0.80351537     1.08500
C776        C  0.47646349  0.56687667  0.81548741     1.08700
C777        C  0.06077107  0.00017220  0.68614365     1.08500
O778        O  0.48049334  0.92816641  0.71426405    -0.81100
O779        O  0.43203633  0.97288957  0.79036983    -0.81100
O780        O  0.41418161  0.53464934  0.70691619    -0.81100
O781        O  0.01308350  0.93675127  0.79378827    -0.81000
O782        O  0.98865202  0.97039058  0.84169904    -0.81100
O783        O  0.42203364  0.47441837  0.70260053    -0.81100
O784        O  0.04419937  0.93193276  0.72143693    -0.81000
O785        O  0.41160912  0.52835359  0.78232418    -0.81100
Co786      Co  0.47835930  0.47682081  0.69143441     1.51500
Co787      Co  0.98678260  0.99049546  0.79511585     1.51700
Co788      Co  0.45196220  0.54857632  0.74510028     1.51600
Co789      Co  0.03572971  0.97682865  0.75655144     1.51500
O790        O  0.98426801  0.50197717  0.74193028    -1.43000
C791        C  0.01580700  0.91406502  0.70907336     1.08600
C792        C  0.40673711  0.49525364  0.79404258     1.08700
C793        C  0.40447655  0.50332984  0.69335327     1.08600
C794        C  0.00261792  0.93984962  0.82877350     1.08600
O795        O  0.44498415  0.69402889  0.48678532    -0.81000
O796        O  0.02278767  0.83306125  0.97000443    -0.81100
O797        O  0.43001940  0.79628875  0.54423287    -0.81100
O798        O  0.99713727  0.71759202  0.92155026    -0.81000
O799        O  0.45760680  0.82348491  0.00195772    -0.81100
O800        O  0.50853323  0.67285008  0.95675589    -0.81100
O801        O  0.00377497  0.79302494  0.92765683    -0.81000
O802        O  0.42168274  0.72240090  0.53640554    -0.81100
C803        C  0.41695272  0.69989491  0.50991561     1.08600
C804        C  0.01160226  0.82610174  0.93749366     1.08500
C805        C  0.43121882  0.82159474  0.52095791     1.08700
C806        C  0.99926748  0.68321494  0.92709609     1.08500
O807        O  0.05272749  0.70605113  0.51663997    -0.81100
O808        O  0.01512088  0.84103659  0.54903244    -0.81100
O809        O  0.49444528  0.70411201  0.56798509    -0.81100
O810        O  0.07628174  0.78478741  0.96159179    -0.81000
O811        O  0.06369071  0.78616670  0.02095216    -0.81100
O812        O  0.49508161  0.65700076  0.52647412    -0.81100
O813        O  0.06989082  0.70934876  0.95916023    -0.81000
O814        O  0.50697595  0.78572558  0.57540070    -0.81100
Co815      Co  0.49853594  0.70185558  0.50266210     1.51500
Co816      Co  0.00904934  0.80197760  0.01430241     1.51700
Co817      Co  0.46793805  0.75246299  0.54802884     1.51600
Co818      Co  0.03358481  0.75116276  0.94595572     1.51500
O819        O  0.99503023  0.75423431  0.99300579    -1.43000
C820        C  0.07734049  0.69865189  0.99107777     1.08600
C821        C  0.51391785  0.82121449  0.57757108     1.08700
C822        C  0.49438899  0.66833712  0.55976679     1.08600
C823        C  0.08631333  0.79354359  0.99366747     1.08600
O824        O  0.33160627  0.52077207  0.52976575    -0.81000
O825        O  0.18620289  0.94849527  0.99757096    -0.81100
O826        O  0.20682547  0.49885558  0.56726277    -0.81100
O827        O  0.27566952  0.93300785  0.00445522    -0.81000
O828        O  0.16304725  0.01649599  0.53150891    -0.81100
O829        O  0.32655657  0.96513506  0.48051553    -0.81100
O830        O  0.22038846  0.91302595  0.95590147    -0.81000
O831        O  0.28473801  0.50045424  0.56743842    -0.81100
C832        C  0.32013251  0.50713393  0.56049527     1.08600
C833        C  0.19216604  0.91653285  0.97987730     1.08500
C834        C  0.17182399  0.50677423  0.56238824     1.08700
C835        C  0.31235336  0.93551959  0.99855387     1.09100
O836        O  0.28962652  0.51501606  0.92912574    -0.81100
O837        O  0.20124423  0.56060219  0.97620622    -0.81100
O838        O  0.28502491  0.57593289  0.53954120    -0.81100
O839        O  0.20735570  0.98268803  0.93039390    -0.81000
O840        O  0.15145778  0.00192348  0.95871551    -0.81100
O841        O  0.29274782  0.56988329  0.47962552    -0.81100
O842        O  0.28142023  0.95374012  0.92863070    -0.81000
O843        O  0.20589226  0.57307382  0.53495704    -0.81100
Co844      Co  0.30667912  0.51690277  0.48005729     1.51500
Co845      Co  0.19723768  0.00467998  0.98461690     1.51700
Co846      Co  0.24577056  0.53476930  0.54977607     1.51600
Co847      Co  0.24111178  0.95932074  0.97127829     1.51500
O848        O  0.25218803  0.50764049  0.99973383    -1.43000
C849        C  0.29195369  0.98228281  0.91133083     1.08600
C850        C  0.19496314  0.58188235  0.50320750     1.08700
C851        C  0.29699540  0.58894973  0.50868968     1.08600
C852        C  0.17126136  0.99359614  0.92902780     1.08600
C853        C  0.35806566  0.84048649  0.02053196    -0.27200
C854        C  0.40011847  0.85114174  0.51890504    -0.15300
C855        C  0.41071524  0.88821629  0.51112713     0.35300
C856        C  0.38178777  0.91533078  0.50572212    -0.26700
C857        C  0.33979702  0.90569513  0.01018751    -0.15900
C858        C  0.32921205  0.86775302  0.01362071     0.36400
N859        N  0.28974515  0.85669901  0.00862273    -0.90200
H860        H  0.35040949  0.81129369  0.02139563     0.17500
H861        H  0.39073381  0.94344173  0.49968057     0.17500
N862        N  0.45112048  0.89835980  0.50867337    -0.89200
H863        H  0.28670315  0.82810263  0.01264809     0.34900
H864        H  0.28395094  0.86095377  0.98107024     0.40000
H865        H  0.46181230  0.89585947  0.53491373     0.39600
H866        H  0.45414110  0.92636576  0.50197048     0.34500
C867        C  0.37190777  0.65963906  0.47511839    -0.27200
C868        C  0.38071760  0.67760161  0.50849529    -0.15300
C869        C  0.35777800  0.66990261  0.54106898     0.35300
C870        C  0.32795232  0.64344730  0.53959560    -0.26700
C871        C  0.32127184  0.62322069  0.50682166    -0.15900
C872        C  0.34246704  0.63279481  0.47373458     0.36400
N873        N  0.33551287  0.61411481  0.43902217    -0.90200
H874        H  0.38916424  0.66552127  0.45010353     0.17500
H875        H  0.31159069  0.63681570  0.56486630     0.17500
N876        N  0.36643857  0.68686236  0.57613631    -0.89200
H877        H  0.35474675  0.62318260  0.41793389     0.34900
H878        H  0.30749746  0.62192576  0.43197622     0.40000
H879        H  0.39329605  0.67586635  0.58324109     0.39600
H880        H  0.34602801  0.67925449  0.59690062     0.34500
C881        C  0.10464477  0.85789430  0.00861327    -0.27200
C882        C  0.11714283  0.82172127  0.99710310    -0.15300
C883        C  0.15543679  0.81644109  0.98109459     0.35300
C884        C  0.17972907  0.84754287  0.97682999    -0.26700
C885        C  0.16673788  0.88399910  0.98785235    -0.15900
C886        C  0.12862706  0.88896357  0.00421012     0.36400
N887        N  0.11303811  0.92594609  0.51338813    -0.90200
H888        H  0.07469855  0.86259387  0.01840086     0.17500
H889        H  0.20881042  0.84315267  0.96408981     0.17500
N890        N  0.17025086  0.78032637  0.96803471    -0.89200
H891        H  0.08525563  0.92431612  0.02691120     0.34900
H892        H  0.11047690  0.93996048  0.98989929     0.40000
H893        H  0.15006271  0.75947449  0.97364170     0.39600
H894        H  0.19448200  0.77406073  0.98306235     0.34500
C895        C  0.15164155  0.63396558  0.03284652    -0.27200
C896        C  0.17033857  0.61636019  0.50004000    -0.15300
C897        C  0.16410722  0.63240749  0.46572845     0.35300
C898        C  0.13533420  0.66076603  0.46369511    -0.26700
C899        C  0.11259063  0.67445079  0.99585420    -0.15900
C900        C  0.12255444  0.66185313  0.03067463     0.36400
N901        N  0.10256933  0.67642528  0.06394674    -0.90200
H902        H  0.15733674  0.62354617  0.05976408     0.17500
H903        H  0.12998503  0.67186781  0.43699415     0.17500
N904        N  0.18632362  0.61934134  0.43290619    -0.89200
H905        H  0.12328433  0.68786173  0.08092496     0.34900
H906        H  0.08949618  0.65419629  0.07759058     0.40000
H907        H  0.21551877  0.62579842  0.43636677     0.39600
H908        H  0.17792068  0.63364726  0.40990051     0.34500
C909        C  0.34133141  0.51387920  0.82253445    -0.27200
C910        C  0.37096420  0.48647590  0.81700258    -0.15300
C911        C  0.36877471  0.45407638  0.83844401     0.35300
C912        C  0.33601643  0.95014681  0.86305469    -0.26700
C913        C  0.31078965  0.98016357  0.87352914    -0.15900
C914        C  0.31011139  0.01142928  0.85092446     0.36400
N915        N  0.28137247  0.04052823  0.85827191    -0.90200
H916        H  0.34171131  0.53845552  0.80592334     0.17500
H917        H  0.33608307  0.92544158  0.87948935     0.17500
N918        N  0.39715932  0.42439038  0.83287829    -0.89200
H919        H  0.26888234  0.54339653  0.83414961     0.34900
H920        H  0.29581867  0.06548733  0.86335127     0.40000
H921        H  0.38247292  0.39963865  0.82743048     0.39600
H922        H  0.40567084  0.91684895  0.84916330     0.34500
C923        C  0.12227963  0.02423043  0.89206967    -0.27200
C924        C  0.15286963  0.99799193  0.89341576    -0.15300
C925        C  0.16237999  0.97441999  0.86218153     0.35300
C926        C  0.13849033  0.97506803  0.83188455    -0.26700
C927        C  0.10528778  0.99874752  0.83205168    -0.15900
C928        C  0.09842509  0.02486228  0.86214501     0.36400
N929        N  0.06682435  0.05152568  0.86416360    -0.90200
H930        H  0.11554669  0.04340667  0.91542647     0.17500
H931        H  0.14478937  0.95543948  0.80886570     0.17500
N932        N  0.19375501  0.44892934  0.86225213    -0.89200
H933        H  0.04043128  0.03743473  0.86625352     0.34900
H934        H  0.06841303  0.06716750  0.84032874     0.40000
H935        H  0.21920432  0.46461722  0.86117354     0.39600
H936        H  0.19517558  0.43173383  0.83831683     0.34500
C937        C  0.07716669  0.51808630  0.62182581    -0.27200
C938        C  0.09083080  0.01025535  0.65802510    -0.15300
C939        C  0.13056000  0.00257579  0.66215055     0.35300
C940        C  0.15647178  0.00197713  0.63073816    -0.26700
C941        C  0.14266013  0.50771342  0.59424103    -0.15900
C942        C  0.10312154  0.51780151  0.59059505     0.36400
N943        N  0.08905756  0.52690856  0.55531061    -0.90200
H944        H  0.04653239  0.52392759  0.61866832     0.17500
H945        H  0.18693702  0.99525231  0.63389767     0.17500
N946        N  0.14393326  0.99290524  0.69752011    -0.89200
H947        H  0.05974964  0.53547040  0.55802550     0.34900
H948        H  0.09005911  0.50238234  0.53878989     0.40000
H949        H  0.14039970  0.01659149  0.71510363     0.39600
H950        H  0.17380457  0.98650075  0.69545671     0.34500
C951        C  0.37757333  0.53640728  0.64121207    -0.27200
C952        C  0.38147540  0.50278012  0.65979438    -0.15300
C953        C  0.36813856  0.46948515  0.64306775     0.35300
C954        C  0.34432063  0.97335060  0.61273534    -0.26700
C955        C  0.34602612  0.50461717  0.59124676    -0.15900
C956        C  0.36038139  0.53747722  0.60722355     0.36400
N957        N  0.35602540  0.57242536  0.58975317    -0.90200
H958        H  0.38847955  0.56226364  0.65271657     0.17500
H959        H  0.32830936  0.94928201  0.60341394     0.17500
N960        N  0.36060683  0.93930033  0.66765661    -0.89200
H961        H  0.38373883  0.58358724  0.58505750     0.34900
H962        H  0.33993944  0.59063267  0.60815308     0.40000
H963        H  0.37361100  0.91744498  0.65125460     0.39600
H964        H  0.33129576  0.93288027  0.67309744     0.34500
C965        C  0.49031342  0.63285950  0.83282759    -0.27200
C966        C  0.47779449  0.59759532  0.84385815    -0.15300
C967        C  0.97098870  0.59160589  0.88255225     0.35300
C968        C  0.97714184  0.62036538  0.90868171    -0.26700
C969        C  0.99114414  0.65514416  0.89792110    -0.15900
C970        C  0.49565289  0.66187108  0.85863942     0.36400
N971        N  0.50943809  0.69669327  0.84517816    -0.90200
H972        H  0.49704526  0.63782007  0.80386498     0.17500
H973        H  0.97073396  0.61563515  0.93775182     0.17500
N974        N  0.95589311  0.55656259  0.89464611    -0.89200
H975        H  0.53566048  0.70293626  0.85714534     0.34900
H976        H  0.48867077  0.71760271  0.85271552     0.40000
H977        H  0.92785373  0.55407670  0.88506281     0.39600
H978        H  0.95260485  0.55645641  0.92348792     0.34500
C979        C  0.50174687  0.84570804  0.87216421    -0.27200
C980        C  0.00937186  0.85562693  0.90989944    -0.15300
C981        C  0.01505868  0.89363675  0.91918510     0.35300
C982        C  0.01381634  0.91989980  0.89153764    -0.26700
C983        C  0.00651374  0.90946785  0.85482039    -0.15900
C984        C  0.50013901  0.87219520  0.84483336     0.36400
N985        N  0.49054604  0.86016867  0.80840728    -0.90200
H986        H  0.49629853  0.81685469  0.86445729     0.17500
H987        H  0.01830679  0.94904283  0.89887654     0.17500
N988        N  0.02187140  0.90566738  0.95648945    -0.89200
H989        H  0.51377721  0.86635727  0.78983150     0.34900
H990        H  0.46575082  0.87498517  0.80140412     0.40000
H991        H  0.99618222  0.90142334  0.97252495     0.39600
H992        H  0.02697796  0.93435012  0.95818147     0.34500
C993        C  0.48978657  0.83534059  0.64234447    -0.27200
C994        C  0.51922221  0.83926557  0.61437095    -0.15300
C995        C  0.05131227  0.86372442  0.62040297     0.35300
C996        C  0.05202342  0.88506760  0.65374980    -0.26700
C997        C  0.02172125  0.88289863  0.68129841    -0.15900
C998        C  0.48961119  0.85676223  0.67563812     0.36400
N999        N  0.45799669  0.85391715  0.70306891    -0.90200
H1000       H  0.46561262  0.81709745  0.63730901     0.17500
H1001       H  0.07471764  0.90541898  0.65701308     0.17500
N1002       N  0.08197097  0.86672605  0.59215201    -0.89200
H1003       H  0.43798453  0.83413776  0.69461642     0.34900
H1004       H  0.46969645  0.84400203  0.72697048     0.40000
H1005       H  0.09607523  0.84063464  0.58885551     0.39600
H1006       H  0.10285188  0.88568168  0.60050316     0.34500
C1007       C  0.00480531  0.65100089  0.62559021    -0.27200
C1008       C  0.49482921  0.63987311  0.58854616    -0.15300
C1009       C  0.48310915  0.60270720  0.58081278     0.35300
C1010       C  0.48251540  0.57675281  0.60876308    -0.26700
C1011       C  0.49240754  0.58670931  0.64469223    -0.15900
C1012       C  0.00436508  0.62471429  0.65356741     0.36400
N1013       N  0.01529954  0.63586714  0.68998947    -0.90200
H1014       H  0.01334656  0.67942321  0.63175533     0.17500
H1015       H  0.47263193  0.54877386  0.60259269     0.17500
N1016       N  0.47037209  0.59152412  0.54497776    -0.89200
H1017       H  0.02198171  0.66423945  0.69132473     0.34900
H1018       H  0.04099281  0.62128510  0.69489436     0.40000
H1019       H  0.44415746  0.60578977  0.54132140     0.39600
H1020       H  0.46404143  0.56306062  0.54368515     0.34500
O1021       O  0.97509500  0.02688315  0.16591637    -0.81000
O1022       O  0.54168391  0.50769241  0.30402207    -0.81100
O1023       O  0.98520132  0.07296553  0.28280267    -0.81100
O1024       O  0.56112752  0.50840566  0.21786796    -0.81000
O1025       O  0.46676870  0.03507845  0.32423312    -0.81100
O1026       O  0.53225115  0.97739403  0.17466368    -0.81100
O1027       O  0.58316083  0.46646966  0.27633151    -0.81000
O1028       O  0.98859871  0.07030808  0.20800757    -0.81100
C1029       C  0.98693155  0.05965329  0.17453237     1.08600
C1030       C  0.57540251  0.49053201  0.30240643     1.08500
C1031       C  0.97642465  0.06758314  0.31619840     1.08700
C1032       C  0.55882527  0.49901548  0.18393430     1.08500
O1033       O  0.98098838  0.42676816  0.21454386    -0.81100
O1034       O  0.93345801  0.47222964  0.29219257    -0.81100
O1035       O  0.91421233  0.03767474  0.20694222    -0.81100
O1036       O  0.51365812  0.43600688  0.29238733    -0.81000
O1037       O  0.48722944  0.46850457  0.34044278    -0.81100
O1038       O  0.92016697  0.97725610  0.20462779    -0.81100
O1039       O  0.54352816  0.43122941  0.22021594    -0.81000
O1040       O  0.91036005  0.03173773  0.28232685    -0.81100
Co1041     Co  0.97646282  0.97801951  0.19290027     1.51500
Co1042     Co  0.48524438  0.48853889  0.29385296     1.51700
Co1043     Co  0.95201806  0.05062020  0.24552834     1.51600
Co1044     Co  0.53509145  0.47626897  0.25487693     1.51500
O1045       O  0.48448565  0.00106526  0.24216525    -1.43000
C1046       C  0.51527974  0.41288772  0.20822896     1.08600
C1047       C  0.90372062  0.99865992  0.29340610     1.08700
C1048       C  0.90370622  0.00625784  0.19425886     1.08600
C1049       C  0.50285617  0.43873480  0.32729081     1.08600
O1050       O  0.94234679  0.19637689  0.98885950    -0.81000
O1051       O  0.52257119  0.33337446  0.46917810    -0.81100
O1052       O  0.92826836  0.29692486  0.04720222    -0.81100
O1053       O  0.49886288  0.21764704  0.41948959    -0.81000
O1054       O  0.95918673  0.32501799  0.50354104    -0.81100
O1055       O  0.00577732  0.17326758  0.45762101    -0.81100
O1056       O  0.50431593  0.29332685  0.42652704    -0.81000
O1057       O  0.91994935  0.22337248  0.03942601    -0.81100
C1058       C  0.91463809  0.20179222  0.01235291     1.08600
C1059       C  0.51210409  0.32639229  0.43644661     1.08500
C1060       C  0.92890749  0.32279494  0.02457114     1.08700
C1061       C  0.50084767  0.18331994  0.42546187     1.08500
O1062       O  0.55184691  0.20489616  0.01667571    -0.81100
O1063       O  0.51465501  0.34095993  0.04847490    -0.81100
O1064       O  0.99372328  0.20515146  0.06964202    -0.81100
O1065       O  0.57649878  0.28574413  0.46090520    -0.81000
O1066       O  0.56343466  0.28638844  0.52008638    -0.81100
O1067       O  0.99293719  0.15859643  0.02776877    -0.81100
O1068       O  0.57057613  0.21001590  0.45812777    -0.81000
O1069       O  0.00619297  0.28651611  0.07679152    -0.81100
Co1070     Co  0.99606185  0.20362622  0.00433444     1.51500
Co1071     Co  0.50876561  0.30176833  0.51306377     1.51700
Co1072     Co  0.96648879  0.25343945  0.05032706     1.51600
Co1073     Co  0.53432239  0.25163932  0.44474858     1.51500
O1074       O  0.49504474  0.25418957  0.49142036    -1.43000
C1075       C  0.57725480  0.19901409  0.49009325     1.08600
C1076       C  0.01350046  0.32189301  0.07927108     1.08700
C1077       C  0.99371746  0.16946366  0.06107712     1.08600
C1078       C  0.58604359  0.29456235  0.49311550     1.08600
O1079       O  0.83295470  0.02084753  0.02950944    -0.81000
O1080       O  0.68545690  0.45030401  0.49745843    -0.81100
O1081       O  0.70791234  0.99892780  0.06776346    -0.81100
O1082       O  0.77598083  0.43393303  0.50467083    -0.81000
O1083       O  0.66267759  0.51711409  0.03023221    -0.81100
O1084       O  0.82653027  0.46509939  0.98240164    -0.81100
O1085       O  0.72009112  0.41383265  0.45683694    -0.81000
O1086       O  0.78607442  0.00061347  0.06713470    -0.81100
C1087       C  0.82150931  0.00733921  0.06029523     1.08600
C1088       C  0.69154249  0.41799280  0.48040519     1.08500
C1089       C  0.67290656  0.00683165  0.06277252     1.08700
C1090       C  0.81260522  0.43640433  0.49815844     1.09100
O1091       O  0.79022401  0.01753150  0.43057983    -0.81100
O1092       O  0.70096819  0.06084408  0.47644043    -0.81100
O1093       O  0.78553811  0.07586856  0.03898588    -0.81100
O1094       O  0.70664023  0.48288286  0.43063644    -0.81000
O1095       O  0.65186990  0.50475361  0.45889999    -0.81100
O1096       O  0.79505153  0.06988647  0.97900865    -0.81100
O1097       O  0.78083637  0.45476348  0.42894609    -0.81000
O1098       O  0.70662109  0.07286988  0.03508744    -0.81100
Co1099     Co  0.80819299  0.01654964  0.97984795     1.51500
Co1100     Co  0.69781258  0.50644973  0.48477846     1.51700
Co1101     Co  0.74678872  0.03468902  0.04961395     1.51600
Co1102     Co  0.74092184  0.46006021  0.47177906     1.51500
O1103       O  0.75232773  0.00903104  0.50089873    -1.43000
C1104       C  0.79134017  0.48340979  0.41180221     1.08600
C1105       C  0.69546709  0.08160198  0.00340979     1.08700
C1106       C  0.79751510  0.08923380  0.00831588     1.08600
C1107       C  0.67076705  0.49456955  0.42922217     1.08600
C1108       C  0.85882072  0.34214285  0.52234116    -0.27200
C1109       C  0.89721171  0.35162141  0.02355012    -0.15300
C1110       C  0.90672857  0.38986897  0.02427884     0.35300
C1111       C  0.87819812  0.41697366  0.01750197    -0.26700
C1112       C  0.84041734  0.40677478  0.50955846    -0.15900
C1113       C  0.82975619  0.36916137  0.51519859     0.36400
N1114       N  0.78992540  0.35815655  0.51241579    -0.90200
H1115       H  0.85098572  0.31315676  0.52512513     0.17500
H1116       H  0.88614494  0.44613403  0.01748258     0.17500
N1117       N  0.94565152  0.40103848  0.03170998    -0.89200
H1118       H  0.78690868  0.32985127  0.51789480     0.34900
H1119       H  0.78287746  0.36113722  0.48498085     0.40000
H1120       H  0.95068494  0.39383543  0.05875734     0.39600
H1121       H  0.94814441  0.43005588  0.03087497     0.34500
C1122       C  0.86859090  0.16376613  0.97645640    -0.27200
C1123       C  0.87824412  0.17988739  0.01046765    -0.15300
C1124       C  0.85603582  0.17059484  0.04293314     0.35300
C1125       C  0.82669323  0.14374608  0.04078067    -0.26700
C1126       C  0.81983707  0.12474227  0.00732986    -0.15900
C1127       C  0.83942547  0.13669353  0.97437138     0.36400
N1128       N  0.83101241  0.12027134  0.93900954    -0.90200
H1129       H  0.88501756  0.17121668  0.95145848     0.17500
H1130       H  0.81121322  0.13559005  0.06601401     0.17500
N1131       N  0.86511139  0.18619386  0.07845809    -0.89200
H1132       H  0.84879042  0.13133185  0.91786120     0.34900
H1133       H  0.80231398  0.12782943  0.93394527     0.40000
H1134       H  0.89221569  0.17511373  0.08473152     0.39600
H1135       H  0.84510852  0.17757299  0.09912601     0.34500
C1136       C  0.60270816  0.35993739  0.50642749    -0.27200
C1137       C  0.61611091  0.32345107  0.49704564    -0.15300
C1138       C  0.65531624  0.31793349  0.48371428     0.35300
C1139       C  0.67960671  0.34903405  0.47969568    -0.26700
C1140       C  0.66582942  0.38572718  0.48851394    -0.15900
C1141       C  0.62686638  0.39101860  0.50254460     0.36400
N1142       N  0.61257267  0.42718041  0.01160716    -0.90200
H1143       H  0.57228793  0.36468753  0.51457071     0.17500
H1144       H  0.70939961  0.34442096  0.46885834     0.17500
N1145       N  0.67114939  0.28151022  0.47308150    -0.89200
H1146       H  0.58236031  0.42685370  0.52187377     0.34900
H1147       H  0.61015265  0.44174464  0.48606992     0.40000
H1148       H  0.65074450  0.26070742  0.47807988     0.39600
H1149       H  0.69407422  0.27613831  0.49005474     0.34500
C1150       C  0.64843128  0.13189861  0.53234776    -0.27200
C1151       C  0.67004566  0.11555239  0.00040957    -0.15300
C1152       C  0.66373915  0.13171725  0.96618873     0.35300
C1153       C  0.63485684  0.15994126  0.96426853    -0.26700
C1154       C  0.61182524  0.17424182  0.49530532    -0.15900
C1155       C  0.61939288  0.15962731  0.52994695     0.36400
N1156       N  0.59690511  0.17180324  0.56274228    -0.90200
H1157       H  0.65246270  0.12010101  0.55902490     0.17500
H1158       H  0.62968719  0.17128058  0.93763309     0.17500
N1159       N  0.68608097  0.11897417  0.93332377    -0.89200
H1160       H  0.61603391  0.18242949  0.58176061     0.34900
H1161       H  0.58348105  0.14847372  0.57407631     0.40000
H1162       H  0.71520077  0.12568364  0.93682068     0.39600
H1163       H  0.67753510  0.13327367  0.91036412     0.34500
C1164       C  0.84012631  0.02024902  0.32410784    -0.27200
C1165       C  0.86681646  0.99079145  0.31519006    -0.15300
C1166       C  0.86101371  0.95633358  0.33264853     0.35300
C1167       C  0.83690475  0.45120177  0.36526747    -0.26700
C1168       C  0.81140800  0.48126631  0.37467312    -0.15900
C1169       C  0.81151462  0.51239347  0.35188203     0.36400
N1170       N  0.78316069  0.54193219  0.35866877    -0.90200
H1171       H  0.84271660  0.04638545  0.31006947     0.17500
H1172       H  0.83660038  0.42678111  0.38211693     0.17500
N1173       N  0.88464919  0.92410567  0.32176362    -0.89200
H1174       H  0.77031327  0.05415679  0.33982091     0.34900
H1175       H  0.79793791  0.56670942  0.36377667     0.40000
H1176       H  0.86615253  0.90254477  0.31426944     0.39600
H1177       H  0.90699538  0.41833952  0.35379060     0.34500
C1178       C  0.61945685  0.52223801  0.39250226    -0.27200
C1179       C  0.65148750  0.49758167  0.39358704    -0.15300
C1180       C  0.66194988  0.47474766  0.36192770     0.35300
C1181       C  0.63782631  0.47458601  0.33159038    -0.26700
C1182       C  0.60376673  0.49718546  0.33179224    -0.15900
C1183       C  0.59575301  0.52241560  0.36242516     0.36400
N1184       N  0.56324031  0.54801358  0.36473053    -0.90200
H1185       H  0.61174887  0.54092368  0.41601606     0.17500
H1186       H  0.64498476  0.45556355  0.30825225     0.17500
N1187       N  0.69513462  0.95026177  0.36251255    -0.89200
H1188       H  0.53741446  0.53298349  0.36620205     0.34900
H1189       H  0.56452480  0.56433472  0.34135135     0.40000
H1190       H  0.72004573  0.96670995  0.36161746     0.39600
H1191       H  0.69703471  0.93337988  0.33837027     0.34500
C1192       C  0.57680638  0.01188919  0.12036208    -0.27200
C1193       C  0.58867545  0.50881755  0.15556441    -0.15300
C1194       C  0.62849726  0.50232558  0.16021614     0.35300
C1195       C  0.65467936  0.50177653  0.12907019    -0.26700
C1196       C  0.64349318  0.00805832  0.09446744    -0.15900
C1197       C  0.60317051  0.01247065  0.08953592     0.36400
N1198       N  0.58883679  0.01723985  0.05344806    -0.90200
H1199       H  0.54582888  0.01334795  0.11621093     0.17500
H1200       H  0.68525004  0.49596344  0.13268410     0.17500
N1201       N  0.64181113  0.49395407  0.19595709    -0.89200
H1202       H  0.55858386  0.02159268  0.05508606     0.34900
H1203       H  0.59402840  0.99231159  0.03819680     0.40000
H1204       H  0.63755825  0.51801389  0.21292772     0.39600
H1205       H  0.67182088  0.48825034  0.19427865     0.34500
C1206       C  0.88800773  0.03440098  0.13544044    -0.27200
C1207       C  0.88239354  0.00502524  0.15986460    -0.15300
C1208       C  0.86098345  0.97385623  0.14863551     0.35300
C1209       C  0.84346088  0.47272751  0.11416326    -0.26700
C1210       C  0.84764627  0.00409112  0.09099328    -0.15900
C1211       C  0.87158597  0.03395412  0.10091755     0.36400
N1212       N  0.87784006  0.06451918  0.07674358    -0.90200
H1213       H  0.90561357  0.05792765  0.14315167     0.17500
H1214       H  0.82853328  0.44828020  0.10411124     0.17500
N1215       N  0.86104285  0.43788176  0.16817023    -0.89200
H1216       H  0.89673272  0.08383517  0.08808122     0.34900
H1217       H  0.85116808  0.07856954  0.07547348     0.40000
H1218       H  0.87457835  0.41673920  0.15120403     0.39600
H1219       H  0.83196580  0.43056327  0.17355810     0.34500
C1220       C  0.99966852  0.13023065  0.33495781    -0.27200
C1221       C  0.97881258  0.09817703  0.34439534    -0.15300
C1222       C  0.46582941  0.09478806  0.38021724     0.35300
C1223       C  0.47221167  0.12358981  0.40624124    -0.26700
C1224       C  0.49361084  0.15507615  0.39641635    -0.15900
C1225       C  0.00448436  0.15925341  0.36082519     0.36400
N1226       N  0.02730645  0.19050193  0.34967290    -0.90200
H1227       H  0.01315783  0.13252096  0.30739947     0.17500
H1228       H  0.46001111  0.12169866  0.43434221     0.17500
N1229       N  0.44246815  0.06350160  0.39078773    -0.89200
H1230       H  0.05049265  0.19324105  0.36702146     0.34900
H1231       H  0.00976722  0.21462704  0.35245021     0.40000
H1232       H  0.41711722  0.06451555  0.37612696     0.39600
H1233       H  0.43342189  0.06584149  0.41880720     0.34500
C1234       C  0.99820621  0.34703109  0.37453438    -0.27200
C1235       C  0.51069115  0.35572082  0.40864107    -0.15300
C1236       C  0.52217088  0.39280965  0.41605515     0.35300
C1237       C  0.52090479  0.41868210  0.38803176    -0.26700
C1238       C  0.50834824  0.40858757  0.35290816    -0.15900
C1239       C  0.99713325  0.37328577  0.34702035     0.36400
N1240       N  0.98354826  0.36204537  0.31175246    -0.90200
H1241       H  0.98944216  0.31881633  0.36774721     0.17500
H1242       H  0.52917916  0.44729578  0.39381916     0.17500
N1243       N  0.53518550  0.40425487  0.45165350    -0.89200
H1244       H  0.00588803  0.36601165  0.29157010     0.34900
H1245       H  0.95969426  0.37903464  0.30626054     0.40000
H1246       H  0.51111531  0.40379044  0.47054566     0.39600
H1247       H  0.54442309  0.43192784  0.45161428     0.34500
C1248       C  0.99216373  0.33308688  0.14505333    -0.27200
C1249       C  0.02001893  0.33897503  0.11609477    -0.15300
C1250       C  0.55076040  0.36427738  0.11906137     0.35300
C1251       C  0.55134056  0.38539379  0.15246140    -0.26700
C1252       C  0.52164456  0.38204756  0.18037730    -0.15900
C1253       C  0.99247118  0.35396913  0.17856818     0.36400
N1254       N  0.96244784  0.34932667  0.20721254    -0.90200
H1255       H  0.96863209  0.31390213  0.14063425     0.17500
H1256       H  0.57335738  0.40646853  0.15551794     0.17500
N1257       N  0.58065830  0.36862847  0.09034782    -0.89200
H1258       H  0.94310218  0.32866217  0.19935202     0.34900
H1259       H  0.97592114  0.33967405  0.23031969     0.40000
H1260       H  0.59589745  0.34314933  0.08675062     0.39600
H1261       H  0.60082065  0.38847021  0.09839031     0.34500
C1262       C  0.50164730  0.15053271  0.12494499    -0.27200
C1263       C  0.99584754  0.14055703  0.08932901    -0.15300
C1264       C  0.98490888  0.10318779  0.08131926     0.35300
C1265       C  0.98478898  0.07705635  0.10911035    -0.26700
C1266       C  0.99458675  0.08696191  0.14507655    -0.15900
C1267       C  0.50124908  0.12449223  0.15314883     0.36400
N1268       N  0.50850748  0.13688907  0.19024136    -0.90200
H1269       H  0.50764381  0.17952064  0.13154563     0.17500
H1270       H  0.97513362  0.04902220  0.10284347     0.17500
N1271       N  0.97253568  0.09190329  0.04536693    -0.89200
H1272       H  0.51240365  0.16577276  0.19180925     0.34900
H1273       H  0.53492920  0.12467365  0.19690007     0.40000
H1274       H  0.94608172  0.10570696  0.04157334     0.39600
H1275       H  0.96680039  0.06333229  0.04390045     0.34500
O1276       O  0.97512529  0.02688359  0.66602260    -0.81000
O1277       O  0.54344725  0.51015228  0.80359196    -0.81100
O1278       O  0.98674398  0.07321779  0.78245151    -0.81100
O1279       O  0.56254699  0.50955848  0.71861773    -0.81000
O1280       O  0.46606761  0.03575604  0.82377338    -0.81100
O1281       O  0.53198863  0.97876518  0.67447220    -0.81100
O1282       O  0.58430820  0.46780559  0.77690373    -0.81000
O1283       O  0.98835921  0.07033790  0.70812773    -0.81100
C1284       C  0.98608515  0.05990438  0.67469751     1.08600
C1285       C  0.57695462  0.49266283  0.80230818     1.08500
C1286       C  0.97882413  0.06780302  0.81593256     1.08700
C1287       C  0.56081238  0.50020468  0.68464063     1.08500
O1288       O  0.98006754  0.42807670  0.71322062    -0.81100
O1289       O  0.93141676  0.47345703  0.78981761    -0.81100
O1290       O  0.91450575  0.03675377  0.70832694    -0.81100
O1291       O  0.51506041  0.43691851  0.79274060    -0.81000
O1292       O  0.49064965  0.47009947  0.84103587    -0.81100
O1293       O  0.92143966  0.97640159  0.70428736    -0.81100
O1294       O  0.54539957  0.43209754  0.72060716    -0.81000
O1295       O  0.91200347  0.03063507  0.78347753    -0.81100
Co1296     Co  0.97774472  0.97807339  0.69277794     1.51500
Co1297     Co  0.48745796  0.48980335  0.79435605     1.51700
Co1298     Co  0.95286697  0.05015845  0.74610952     1.51600
Co1299     Co  0.53637367  0.47715533  0.75530713     1.51500
O1300       O  0.48427231  0.00183018  0.74192011    -1.43000
C1301       C  0.51770615  0.41325436  0.70814396     1.08600
C1302       C  0.90614946  0.99719250  0.79391553     1.08700
C1303       C  0.90421211  0.00549652  0.69508316     1.08600
C1304       C  0.50528639  0.43993529  0.82783653     1.08600
O1305       O  0.94050841  0.19769612  0.48900510    -0.81000
O1306       O  0.52374331  0.33322740  0.96881807    -0.81100
O1307       O  0.92933801  0.29753183  0.54810168    -0.81100
O1308       O  0.49981536  0.21751157  0.91939273    -0.81000
O1309       O  0.95839592  0.32547283  0.00343240    -0.81100
O1310       O  0.00806345  0.17372664  0.95766078    -0.81100
O1311       O  0.50605185  0.29322355  0.92585693    -0.81000
O1312       O  0.91982694  0.22427174  0.54037101    -0.81100
C1313       C  0.91343167  0.20335997  0.51310427     1.08600
C1314       C  0.51368734  0.32629355  0.93598417     1.08500
C1315       C  0.92986449  0.32295720  0.52501288     1.08700
C1316       C  0.50154208  0.18316677  0.92530867     1.08500
O1317       O  0.55200615  0.20588437  0.51615777    -0.81100
O1318       O  0.51493314  0.34041195  0.54946207    -0.81100
O1319       O  0.99351593  0.20489466  0.56929137    -0.81100
O1320       O  0.57751845  0.28505570  0.96111368    -0.81000
O1321       O  0.56361781  0.28675627  0.02022761    -0.81100
O1322       O  0.99016756  0.15840791  0.52769589    -0.81100
O1323       O  0.57100265  0.20937686  0.95878427    -0.81000
O1324       O  0.00775874  0.28566481  0.57649512    -0.81100
Co1325     Co  0.99448146  0.20340715  0.50422270     1.51500
Co1326     Co  0.50893121  0.30207506  0.01256419     1.51700
Co1327     Co  0.96698160  0.25352277  0.55060075     1.51600
Co1328     Co  0.53530040  0.25126839  0.94475259     1.51500
O1329       O  0.49545640  0.25419674  0.99092895    -1.43000
C1330       C  0.57724098  0.19788299  0.99069788     1.08600
C1331       C  0.01480726  0.32104944  0.57914822     1.08700
C1332       C  0.99182654  0.16929611  0.56092018     1.08600
C1333       C  0.58672784  0.29426685  0.99331557     1.08600
O1334       O  0.83129007  0.02322178  0.53178989    -0.81000
O1335       O  0.68582065  0.44988026  0.99679076    -0.81100
O1336       O  0.70625110  0.00034548  0.56791556    -0.81100
O1337       O  0.77574100  0.43435352  0.00501949    -0.81000
O1338       O  0.66425148  0.51836748  0.53078512    -0.81100
O1339       O  0.82637802  0.46390770  0.48024640    -0.81100
O1340       O  0.72102355  0.41429174  0.95590476    -0.81000
O1341       O  0.78422789  0.00227509  0.56886753    -0.81100
C1342       C  0.81963287  0.00925642  0.56233619     1.08600
C1343       C  0.69229654  0.41783980  0.97937797     1.08500
C1344       C  0.67138111  0.00864002  0.56285362     1.08700
C1345       C  0.81243204  0.43711012  0.99926902     1.09100
O1346       O  0.79100020  0.01367637  0.92887086    -0.81100
O1347       O  0.70173884  0.05913591  0.97575249    -0.81100
O1348       O  0.78408173  0.07794136  0.54160287    -0.81100
O1349       O  0.70762468  0.48395056  0.93049775    -0.81000
O1350       O  0.65197957  0.50422074  0.95835425    -0.81100
O1351       O  0.79309440  0.07278554  0.48162837    -0.81100
O1352       O  0.78210550  0.45638769  0.92982320    -0.81000
O1353       O  0.70546886  0.07460163  0.53591603    -0.81100
Co1354     Co  0.80708299  0.01966112  0.48166729     1.51500
Co1355     Co  0.69738901  0.50626855  0.98485895     1.51700
Co1356     Co  0.74523318  0.03644361  0.55100520     1.51600
Co1357     Co  0.74121259  0.46066742  0.97186838     1.51500
O1358       O  0.75333573  0.00677263  0.99971042    -1.43000
C1359       C  0.79283943  0.48539029  0.91339311     1.08600
C1360       C  0.69484539  0.08338363  0.50406383     1.08700
C1361       C  0.79579813  0.09176164  0.51107899     1.08600
C1362       C  0.67164241  0.49521040  0.92879182     1.08600
C1363       C  0.85845402  0.34160315  0.01835716    -0.27200
C1364       C  0.89824232  0.35187839  0.52362132    -0.15300
C1365       C  0.90824823  0.38977590  0.52041073     0.35300
C1366       C  0.87953834  0.41649619  0.51318078    -0.26700
C1367       C  0.83987140  0.40710162  0.01023071    -0.15900
C1368       C  0.82969271  0.36891488  0.01139681     0.36400
N1369       N  0.79079015  0.35774676  0.00399260    -0.90200
H1370       H  0.85109013  0.31230369  0.01782949     0.17500
H1371       H  0.88797449  0.44529014  0.51008932     0.17500
N1372       N  0.94785347  0.40102318  0.52446050    -0.89200
H1373       H  0.78799383  0.32889533  0.00629011     0.34900
H1374       H  0.78629832  0.36347907  0.97644730     0.40000
H1375       H  0.95464413  0.39608806  0.55164617     0.39600
H1376       H  0.95061561  0.42973310  0.52101822     0.34500
C1377       C  0.86515859  0.16724047  0.47812785    -0.27200
C1378       C  0.87666814  0.18217470  0.51195807    -0.15300
C1379       C  0.85634488  0.17176807  0.54493745     0.35300
C1380       C  0.82700150  0.14500320  0.54362764    -0.26700
C1381       C  0.81813085  0.12720758  0.51014072    -0.15900
C1382       C  0.83586709  0.14023532  0.47671821     0.36400
N1383       N  0.82550528  0.12491370  0.44148959    -0.90200
H1384       H  0.88030852  0.17544121  0.45272391     0.17500
H1385       H  0.81305581  0.13629762  0.56937789     0.17500
N1386       N  0.86742590  0.18596817  0.58019452    -0.89200
H1387       H  0.84205899  0.13669295  0.41991147     0.34900
H1388       H  0.79644527  0.13256755  0.43813558     0.40000
H1389       H  0.87606234  0.16339730  0.59555698     0.39600
H1390       H  0.84287900  0.19865160  0.59397461     0.34500
C1391       C  0.60443301  0.35916192  0.00756707    -0.27200
C1392       C  0.61729657  0.32282184  0.99694635    -0.15300
C1393       C  0.65583322  0.31758942  0.98144203     0.35300
C1394       C  0.68008463  0.34873551  0.97710293    -0.26700
C1395       C  0.66676284  0.38529014  0.98722957    -0.15900
C1396       C  0.62829876  0.39032572  0.00276188     0.36400
N1397       N  0.61114707  0.42796524  0.51097256    -0.90200
H1398       H  0.57434438  0.36383837  0.01695969     0.17500
H1399       H  0.70938371  0.34429386  0.96489398     0.17500
N1400       N  0.67093111  0.28144235  0.96881177    -0.89200
H1401       H  0.58423756  0.42591906  0.02359183     0.34900
H1402       H  0.61034403  0.44080293  0.98672678     0.40000
H1403       H  0.65078297  0.26053269  0.97433687     0.39600
H1404       H  0.69497559  0.27540843  0.98416092     0.34500
C1405       C  0.64833769  0.12955520  0.03214734    -0.27200
C1406       C  0.67010191  0.11758938  0.50076643    -0.15300
C1407       C  0.66426019  0.13362529  0.46640205     0.35300
C1408       C  0.63541500  0.16177074  0.46410258    -0.26700
C1409       C  0.61149982  0.17240531  0.99566132    -0.15900
C1410       C  0.61914272  0.15730959  0.03008629     0.36400
N1411       N  0.59665248  0.16910192  0.06300402    -0.90200
H1412       H  0.65255341  0.11755368  0.05869676     0.17500
H1413       H  0.63036298  0.17292055  0.43735777     0.17500
N1414       N  0.68695247  0.12074448  0.43379365    -0.89200
H1415       H  0.61578376  0.17944973  0.08216074     0.34900
H1416       H  0.58315496  0.14565407  0.07403280     0.40000
H1417       H  0.71602623  0.12739134  0.43760390     0.39600
H1418       H  0.67874719  0.13501786  0.41069606     0.34500
C1419       C  0.84064884  0.01558583  0.82262531    -0.27200
C1420       C  0.86951849  0.98777234  0.81533905    -0.15300
C1421       C  0.86572488  0.95360972  0.83383780     0.35300
C1422       C  0.83709476  0.45344415  0.86541965    -0.26700
C1423       C  0.81266520  0.48396761  0.87615124    -0.15900
C1424       C  0.81290036  0.51564915  0.85407755     0.36400
N1425       N  0.78600205  0.54608920  0.86264023    -0.90200
H1426       H  0.84170981  0.04125182  0.80766963     0.17500
H1427       H  0.83672556  0.42867248  0.88177286     0.17500
N1428       N  0.89161663  0.92258077  0.82437298    -0.89200
H1429       H  0.76808531  0.04463866  0.83536315     0.34900
H1430       H  0.80203622  0.57015866  0.86757744     0.40000
H1431       H  0.87478336  0.89963021  0.81722434     0.39600
H1432       H  0.90604210  0.41902999  0.85066779     0.34500
C1433       C  0.62154898  0.52448265  0.89191784    -0.27200
C1434       C  0.65304539  0.49917171  0.89303830    -0.15300
C1435       C  0.66314863  0.47613052  0.86150568     0.35300
C1436       C  0.63927555  0.47658251  0.83108756    -0.26700
C1437       C  0.60548405  0.49954863  0.83136053    -0.15900
C1438       C  0.59768536  0.52484349  0.86196756     0.36400
N1439       N  0.56503269  0.55032889  0.86455138    -0.90200
H1440       H  0.61410731  0.54317615  0.91549228     0.17500
H1441       H  0.64617807  0.45744616  0.80778527     0.17500
N1442       N  0.69771621  0.95452909  0.85939118    -0.89200
H1443       H  0.53925050  0.53521049  0.86609083     0.34900
H1444       H  0.56602719  0.56673491  0.84123993     0.40000
H1445       H  0.72157972  0.97230961  0.85964126     0.39600
H1446       H  0.70049952  0.93933973  0.83422604     0.34500
C1447       C  0.57559075  0.01537956  0.62065405    -0.27200
C1448       C  0.59098926  0.51035967  0.65670064    -0.15300
C1449       C  0.63056055  0.50204228  0.66087920     0.35300
C1450       C  0.65674356  0.50209189  0.62970920    -0.26700
C1451       C  0.64208519  0.01047789  0.59452702    -0.15900
C1452       C  0.60184131  0.01569947  0.58972723     0.36400
N1453       N  0.58746704  0.02057405  0.55365936    -0.90200
H1454       H  0.54460755  0.01712444  0.61665588     0.17500
H1455       H  0.68706249  0.49480349  0.63291807     0.17500
N1456       N  0.64344831  0.49095150  0.69599483    -0.89200
H1457       H  0.55733452  0.02569627  0.55544574     0.34900
H1458       H  0.59190259  0.99539235  0.53857097     0.40000
H1459       H  0.64009237  0.51408740  0.71431580     0.39600
H1460       H  0.67322869  0.48416497  0.69397097     0.34500
C1461       C  0.88082167  0.03756656  0.64094623    -0.27200
C1462       C  0.88121909  0.00503523  0.66162295    -0.15300
C1463       C  0.86438460  0.97237789  0.64710198     0.35300
C1464       C  0.84889287  0.47325883  0.60987657    -0.26700
C1465       C  0.84540081  0.00629548  0.59324784    -0.15900
C1466       C  0.86351436  0.03831297  0.60700770     0.36400
N1467       N  0.86279067  0.07232586  0.58746035    -0.90200
H1468       H  0.89459927  0.06274846  0.65076540     0.17500
H1469       H  0.83562935  0.44820232  0.59906013     0.17500
N1470       N  0.86838010  0.43808642  0.66291332    -0.89200
H1471       H  0.89158950  0.08036124  0.58194840     0.34900
H1472       H  0.84907619  0.09286911  0.60501319     0.40000
H1473       H  0.88392018  0.41853920  0.64549459     0.39600
H1474       H  0.84000675  0.42842611  0.66743119     0.34500
C1475       C  0.00466036  0.12943043  0.83523994    -0.27200
C1476       C  0.98207451  0.09825577  0.84415414    -0.15300
C1477       C  0.46606733  0.09490590  0.88011834     0.35300
C1478       C  0.47305122  0.12340439  0.90623730    -0.26700
C1479       C  0.49393902  0.15513293  0.89623224    -0.15900
C1480       C  0.00985379  0.15827077  0.86129876     0.36400
N1481       N  0.03496516  0.18826810  0.85113650    -0.90200
H1482       H  0.01924782  0.13103459  0.80806036     0.17500
H1483       H  0.46167396  0.12109404  0.93456068     0.17500
N1484       N  0.44326456  0.06333484  0.89092226    -0.89200
H1485       H  0.05729196  0.18977531  0.86958712     0.34900
H1486       H  0.01879902  0.21324958  0.85326011     0.40000
H1487       H  0.41741601  0.06439199  0.87701632     0.39600
H1488       H  0.43507582  0.06526043  0.91914790     0.34500
C1489       C  0.00283638  0.34606555  0.87284016    -0.27200
C1490       C  0.51254584  0.35587225  0.90845749    -0.15300
C1491       C  0.52070282  0.39354205  0.91736680     0.35300
C1492       C  0.51978674  0.41980432  0.88969618    -0.26700
C1493       C  0.51036030  0.40963510  0.85351172    -0.15900
C1494       C  0.00121539  0.37222742  0.84523180     0.36400
N1495       N  0.99294074  0.35958962  0.80862902    -0.90200
H1496       H  0.99838542  0.31701079  0.86519933     0.17500
H1497       H  0.52576171  0.44876221  0.89663463     0.17500
N1498       N  0.52959650  0.40524020  0.95425891    -0.89200
H1499       H  0.01637491  0.36628453  0.79054329     0.34900
H1500       H  0.96790574  0.37361965  0.80093436     0.40000
H1501       H  0.50420095  0.40271457  0.97115221     0.39600
H1502       H  0.53667591  0.43354897  0.95548191     0.34500
C1503       C  0.99156959  0.33355830  0.64419769    -0.27200
C1504       C  0.02066003  0.33822999  0.61606520    -0.15300
C1505       C  0.55212279  0.36574054  0.61825141     0.35300
C1506       C  0.55291298  0.38728441  0.65137990    -0.26700
C1507       C  0.52535017  0.38205529  0.68076409    -0.15900
C1508       C  0.99107056  0.35511512  0.67736597     0.36400
N1509       N  0.95986686  0.35163272  0.70508984    -0.90200
H1510       H  0.96772985  0.31487157  0.63927564     0.17500
H1511       H  0.57313507  0.41013163  0.65311306     0.17500
N1512       N  0.57990157  0.37199723  0.58817467    -0.89200
H1513       H  0.94041820  0.33116631  0.69696706     0.34900
H1514       H  0.97214908  0.34228109  0.72893560     0.40000
H1515       H  0.59710853  0.34770744  0.58412058     0.39600
H1516       H  0.59874147  0.39347274  0.59506096     0.34500
C1517       C  0.50701997  0.14897881  0.62361789    -0.27200
C1518       C  0.99330812  0.14065531  0.58936032    -0.15300
C1519       C  0.98259143  0.10321017  0.58153721     0.35300
C1520       C  0.98274658  0.07727132  0.60946292    -0.26700
C1521       C  0.99226145  0.08756376  0.64543327    -0.15900
C1522       C  0.50634385  0.12279892  0.65168665     0.36400
N1523       N  0.51791025  0.13383124  0.68791539    -0.90200
H1524       H  0.51560555  0.17738167  0.62979462     0.17500
H1525       H  0.97368706  0.04902345  0.60325747     0.17500
N1526       N  0.97027705  0.09164014  0.54564530    -0.89200
H1527       H  0.52549267  0.16198699  0.68898803     0.34900
H1528       H  0.54319617  0.11854581  0.69272030     0.40000
H1529       H  0.94377846  0.10531813  0.54177337     0.39600
H1530       H  0.96461997  0.06303907  0.54437004     0.34500
O1531       O  0.97401948  0.52495650  0.16557596    -0.81000
O1532       O  0.54155059  0.00802600  0.30508662    -0.81100
O1533       O  0.98588842  0.57223792  0.28205814    -0.81100
O1534       O  0.56202639  0.00744375  0.21899381    -0.81000
O1535       O  0.46665699  0.53403542  0.32299985    -0.81100
O1536       O  0.53180956  0.47815625  0.17322597    -0.81100
O1537       O  0.58222344  0.96560002  0.27822130    -0.81000
O1538       O  0.98750193  0.56831655  0.20773460    -0.81100
C1539       C  0.98550176  0.55783636  0.17429233     1.08600
C1540       C  0.57489876  0.99028794  0.30383927     1.08500
C1541       C  0.97820962  0.56697034  0.31562652     1.08700
C1542       C  0.55969394  0.99793233  0.18507543     1.08500
O1543       O  0.98047349  0.92843061  0.21443626    -0.81100
O1544       O  0.93054332  0.97391344  0.29066577    -0.81100
O1545       O  0.91352716  0.53516158  0.20835865    -0.81100
O1546       O  0.51202832  0.93636659  0.29326953    -0.81000
O1547       O  0.48687900  0.96909778  0.34169840    -0.81100
O1548       O  0.91998877  0.47475664  0.20420924    -0.81100
O1549       O  0.54194529  0.93052107  0.22189394    -0.81000
O1550       O  0.91146200  0.52937665  0.28360054    -0.81100
Co1551     Co  0.97642428  0.47617373  0.19271064     1.51500
Co1552     Co  0.48502965  0.98945392  0.29503813     1.51700
Co1553     Co  0.95202319  0.54867017  0.24590768     1.51600
Co1554     Co  0.53465908  0.97608994  0.25610112     1.51500
O1555       O  0.48438156  0.50029606  0.24115903    -1.43000
C1556       C  0.51334202  0.91278664  0.20968063     1.08600
C1557       C  0.90599912  0.49624963  0.29509476     1.08700
C1558       C  0.90281888  0.50400821  0.19525926     1.08600
C1559       C  0.50183713  0.93912563  0.32823453     1.08600
O1560       O  0.94281189  0.69592183  0.98939042    -0.81000
O1561       O  0.52541662  0.83252418  0.46824162    -0.81100
O1562       O  0.92921079  0.79561947  0.04814594    -0.81100
O1563       O  0.50082062  0.71663376  0.41878017    -0.81000
O1564       O  0.95886484  0.82447594  0.50136179    -0.81100
O1565       O  0.00937526  0.67254165  0.45768796    -0.81100
O1566       O  0.50689253  0.79254253  0.42560041    -0.81000
O1567       O  0.92147690  0.72195806  0.04075214    -0.81100
C1568       C  0.91543703  0.70112231  0.01333306     1.08600
C1569       C  0.51480387  0.82558375  0.43555601     1.08500
C1570       C  0.92933240  0.82122206  0.02522272     1.08700
C1571       C  0.50269099  0.68223769  0.42467605     1.08500
O1572       O  0.55137295  0.70554963  0.01652698    -0.81100
O1573       O  0.51399615  0.84105515  0.04902119    -0.81100
O1574       O  0.99527058  0.70410791  0.07014243    -0.81100
O1575       O  0.57887027  0.78449362  0.46053077    -0.81000
O1576       O  0.56547273  0.78603142  0.51979811    -0.81100
O1577       O  0.99320244  0.65773027  0.02820415    -0.81100
O1578       O  0.57229439  0.70900502  0.45757371    -0.81000
O1579       O  0.00717838  0.78628260  0.07743166    -0.81100
Co1580     Co  0.99664146  0.70273943  0.00484520     1.51500
Co1581     Co  0.51085303  0.80128605  0.51212235     1.51700
Co1582     Co  0.96780610  0.75242614  0.05113339     1.51600
Co1583     Co  0.53641628  0.75066724  0.44405135     1.51500
O1584       O  0.49696339  0.75347191  0.49053712    -1.43000
C1585       C  0.57915536  0.69828934  0.48956899     1.08600
C1586       C  0.01398459  0.82184065  0.07930061     1.08700
C1587       C  0.99426870  0.66843494  0.06152078     1.08600
C1588       C  0.58840113  0.79360060  0.49274187     1.08600
O1589       O  0.83063212  0.52246595  0.03203856    -0.81000
O1590       O  0.68638069  0.95016458  0.49746766    -0.81100
O1591       O  0.70592502  0.49879556  0.06680373    -0.81100
O1592       O  0.77640611  0.93519736  0.50457525    -0.81000
O1593       O  0.66434435  0.01630275  0.03097584    -0.81100
O1594       O  0.82724632  0.96268320  0.98092062    -0.81100
O1595       O  0.72138732  0.91531238  0.45583204    -0.81000
O1596       O  0.78338747  0.50102330  0.06843068    -0.81100
C1597       C  0.81874157  0.50825326  0.06236375     1.08600
C1598       C  0.69304288  0.91824592  0.47976269     1.08500
C1599       C  0.67103030  0.50694014  0.06181296     1.08700
C1600       C  0.81303088  0.93789219  0.49838531     1.09100
O1601       O  0.78861023  0.51448502  0.42878807    -0.81100
O1602       O  0.70222322  0.56036371  0.47523330    -0.81100
O1603       O  0.78365305  0.57707868  0.04147007    -0.81100
O1604       O  0.70739611  0.98491797  0.43095121    -0.81000
O1605       O  0.65184523  0.00445627  0.45938778    -0.81100
O1606       O  0.79223739  0.57149228  0.98156445    -0.81100
O1607       O  0.78184196  0.95778051  0.42929014    -0.81000
O1608       O  0.70488098  0.57350323  0.03574940    -0.81100
Co1609     Co  0.80667599  0.51862963  0.98186866     1.51500
Co1610     Co  0.69754888  0.00675658  0.48554301     1.51700
Co1611     Co  0.74467091  0.53536070  0.05066730     1.51600
Co1612     Co  0.74148336  0.96167444  0.47188411     1.51500
O1613       O  0.75271521  0.50777224  0.49960764    -1.43000
C1614       C  0.79228132  0.98683911  0.41275837     1.08600
C1615       C  0.69439725  0.58258984  0.00395477     1.08700
C1616       C  0.79585197  0.59044149  0.01082995     1.08600
C1617       C  0.67118946  0.99552654  0.42963350     1.08600
C1618       C  0.85869183  0.84228859  0.51847130    -0.27200
C1619       C  0.89743732  0.84985074  0.02430674    -0.15300
C1620       C  0.90677283  0.88812148  0.02512305     0.35300
C1621       C  0.87835202  0.91508210  0.01760340    -0.26700
C1622       C  0.84067421  0.90766953  0.50868594    -0.15900
C1623       C  0.82992703  0.86975855  0.51187883     0.36400
N1624       N  0.79034594  0.85896279  0.50703736    -0.90200
H1625       H  0.85076339  0.81318666  0.51967557     0.17500
H1626       H  0.88625138  0.94424906  0.01744789     0.17500
N1627       N  0.94542824  0.89944542  0.03337360    -0.89200
H1628       H  0.78720958  0.83032941  0.51071192     0.34900
H1629       H  0.78435607  0.86360064  0.47958867     0.40000
H1630       H  0.94986031  0.89226608  0.06055710     0.39600
H1631       H  0.94781948  0.92847098  0.03260365     0.34500
C1632       C  0.86999172  0.66202023  0.97802258    -0.27200
C1633       C  0.87859066  0.67983205  0.01152423    -0.15300
C1634       C  0.85508341  0.67243727  0.04382248     0.35300
C1635       C  0.82610872  0.64510064  0.04231564    -0.26700
C1636       C  0.81971185  0.62499428  0.00938805    -0.15900
C1637       C  0.84063466  0.63516816  0.97636344     0.36400
N1638       N  0.83354299  0.61703485  0.94141611    -0.90200
H1639       H  0.88739062  0.66797569  0.95311093     0.17500
H1640       H  0.80971582  0.63822073  0.06749781     0.17500
N1641       N  0.86224264  0.69079132  0.07862264    -0.89200
H1642       H  0.85254808  0.62657097  0.92037008     0.34900
H1643       H  0.80541172  0.62481583  0.93469778     0.40000
H1644       H  0.84409995  0.68046496  0.09991368     0.39600
H1645       H  0.85447209  0.71894542  0.07667089     0.34500
C1646       C  0.60718400  0.85776262  0.50988336    -0.27200
C1647       C  0.61926050  0.82199744  0.49646001    -0.15300
C1648       C  0.65719876  0.81751647  0.47925655     0.35300
C1649       C  0.68109088  0.84898933  0.47501958    -0.26700
C1650       C  0.66832134  0.88505372  0.48769116    -0.15900
C1651       C  0.63105375  0.88897443  0.50590300     0.36400
N1652       N  0.61238372  0.92674428  0.01002935    -0.90200
H1653       H  0.57774853  0.86231432  0.52124450     0.17500
H1654       H  0.70970810  0.84516940  0.46112660     0.17500
N1655       N  0.67212730  0.78179593  0.46515355    -0.89200
H1656       H  0.60937801  0.92393376  0.54714258     0.34900
H1657       H  0.59047588  0.93043302  0.50573161     0.40000
H1658       H  0.65245112  0.76058839  0.47105643     0.39600
H1659       H  0.69700966  0.77558302  0.47929836     0.34500
C1660       C  0.65136700  0.63217619  0.53146313    -0.27200
C1661       C  0.66922448  0.61653798  0.00106345    -0.15300
C1662       C  0.66472834  0.63411047  0.96725883     0.35300
C1663       C  0.63580675  0.66223707  0.96509409    -0.26700
C1664       C  0.61407160  0.67400379  0.49461416    -0.15900
C1665       C  0.62228196  0.65986232  0.52925846     0.36400
N1666       N  0.60037529  0.67247179  0.56224270    -0.90200
H1667       H  0.65579404  0.62059223  0.55816137     0.17500
H1668       H  0.63190879  0.67471024  0.93873161     0.17500
N1669       N  0.68897381  0.62288536  0.93506961    -0.89200
H1670       H  0.61988830  0.68323477  0.58083758     0.34900
H1671       H  0.58696572  0.64936584  0.57403477     0.40000
H1672       H  0.71771452  0.62949444  0.94044235     0.39600
H1673       H  0.68174140  0.63823559  0.91233971     0.34500
C1674       C  0.84052815  0.51525374  0.32338072    -0.27200
C1675       C  0.86958640  0.48741110  0.31710278    -0.15300
C1676       C  0.86597304  0.45391561  0.33673916     0.35300
C1677       C  0.83318632  0.95407660  0.36239265    -0.26700
C1678       C  0.81080080  0.98549691  0.37481940    -0.15900
C1679       C  0.81213547  0.01779696  0.35358506     0.36400
N1680       N  0.78621406  0.04882665  0.36290642    -0.90200
H1681       H  0.84171447  0.54054633  0.30783624     0.17500
H1682       H  0.83151586  0.92859750  0.37763141     0.17500
N1683       N  0.89302275  0.42336961  0.32949765    -0.89200
H1684       H  0.76809056  0.54493986  0.33463230     0.34900
H1685       H  0.80300504  0.07224059  0.36845054     0.40000
H1686       H  0.87723505  0.39963697  0.32265407     0.39600
H1687       H  0.89943569  0.91580890  0.34463121     0.34500
C1688       C  0.61993487  0.02327857  0.39307679    -0.27200
C1689       C  0.65193157  0.99859551  0.39410352    -0.15300
C1690       C  0.66182902  0.97508639  0.36284093     0.35300
C1691       C  0.63744279  0.97461879  0.33274097    -0.26700
C1692       C  0.60340996  0.99723454  0.33299603    -0.15900
C1693       C  0.59562079  0.02277973  0.36345364     0.36400
N1694       N  0.56263237  0.04782791  0.36617426    -0.90200
H1695       H  0.61252817  0.04221328  0.41647522     0.17500
H1696       H  0.64428567  0.95522691  0.30963655     0.17500
N1697       N  0.69576464  0.45053609  0.36123531    -0.89200
H1698       H  0.53706755  0.03237827  0.36790047     0.34900
H1699       H  0.56333058  0.06417138  0.34283481     0.40000
H1700       H  0.72029051  0.46749211  0.36087519     0.39600
H1701       H  0.69817609  0.43424431  0.33670734     0.34500
C1702       C  0.57607330  0.51695540  0.12052446    -0.27200
C1703       C  0.58942792  0.00767405  0.15618024    -0.15300
C1704       C  0.62964751  0.00665896  0.16170874     0.35300
C1705       C  0.65628243  0.00639290  0.13071883    -0.26700
C1706       C  0.64184673  0.50794386  0.09346998    -0.15900
C1707       C  0.60209116  0.51672822  0.08939687     0.36400
N1708       N  0.58795034  0.52473376  0.05385624    -0.90200
H1709       H  0.54527130  0.52163869  0.11711117     0.17500
H1710       H  0.68721521  0.00450950  0.13496522     0.17500
N1711       N  0.64326651  0.00395975  0.19830991    -0.89200
H1712       H  0.55837842  0.53237453  0.05626338     0.34900
H1713       H  0.58991863  0.50000699  0.03767635     0.40000
H1714       H  0.63546572  0.02890674  0.21287800     0.39600
H1715       H  0.67371763  0.00218160  0.19736175     0.34500
C1716       C  0.87938058  0.53637394  0.14132156    -0.27200
C1717       C  0.87929634  0.50389357  0.16214463    -0.15300
C1718       C  0.86147237  0.47158759  0.14804988     0.35300
C1719       C  0.84306073  0.97400853  0.11472504    -0.26700
C1720       C  0.84397701  0.50528302  0.09357721    -0.15900
C1721       C  0.86220102  0.53722284  0.10733248     0.36400
N1722       N  0.86180997  0.57120572  0.08765421    -0.90200
H1723       H  0.89356343  0.56138201  0.15100684     0.17500
H1724       H  0.82480288  0.95085367  0.10719586     0.17500
N1725       N  0.85668493  0.94244942  0.17181682    -0.89200
H1726       H  0.89067608  0.57910783  0.08222365     0.34900
H1727       H  0.84798123  0.59192746  0.10494028     0.40000
H1728       H  0.86773242  0.91877493  0.15682368     0.39600
H1729       H  0.82691406  0.93862870  0.17777276     0.34500
C1730       C  0.00258260  0.62928990  0.33439503    -0.27200
C1731       C  0.98171894  0.59727468  0.34391288    -0.15300
C1732       C  0.47152184  0.59127122  0.38067392     0.35300
C1733       C  0.47832339  0.62010490  0.40655384    -0.26700
C1734       C  0.49481723  0.65385719  0.39565583    -0.15900
C1735       C  0.00818661  0.65796152  0.36049613     0.36400
N1736       N  0.03094515  0.68922968  0.34927832    -0.90200
H1737       H  0.01534243  0.63183586  0.30658825     0.17500
H1738       H  0.47033403  0.61631871  0.43552154     0.17500
N1739       N  0.45396050  0.55730905  0.39288244    -0.89200
H1740       H  0.05440158  0.69174623  0.36633952     0.34900
H1741       H  0.01352787  0.71340525  0.35244122     0.40000
H1742       H  0.42626893  0.55604697  0.38232932     0.39600
H1743       H  0.44952913  0.55788272  0.42166478     0.34500
C1744       C  0.00400143  0.84527931  0.37164330    -0.27200
C1745       C  0.51275630  0.85510584  0.40806054    -0.15300
C1746       C  0.52604521  0.89170792  0.41489269     0.35300
C1747       C  0.52313125  0.91806519  0.38749132    -0.26700
C1748       C  0.50776142  0.90873080  0.35339626    -0.15900
C1749       C  0.00234211  0.87179283  0.34433827     0.36400
N1750       N  0.99309677  0.85975276  0.30782951    -0.90200
H1751       H  0.99847671  0.81643439  0.36396399     0.17500
H1752       H  0.53264101  0.94636758  0.39287032     0.17500
N1753       N  0.54296239  0.90207023  0.44907978    -0.89200
H1754       H  0.01627629  0.86639852  0.28943616     0.34900
H1755       H  0.96808221  0.87426639  0.30078241     0.40000
H1756       H  0.52065295  0.90264837  0.46990052     0.39600
H1757       H  0.55358247  0.92923223  0.44825328     0.34500
C1758       C  0.99385428  0.83298766  0.14555899    -0.27200
C1759       C  0.02031694  0.84002798  0.11573824    -0.15300
C1760       C  0.54889720  0.86498648  0.12017779     0.35300
C1761       C  0.54934616  0.88554685  0.15389729    -0.26700
C1762       C  0.51941745  0.88207041  0.18157296    -0.15900
C1763       C  0.99365789  0.85465822  0.17868711     0.36400
N1764       N  0.96474101  0.84891097  0.20806483    -0.90200
H1765       H  0.97162967  0.81219039  0.14212064     0.17500
H1766       H  0.57138396  0.90653005  0.15730710     0.17500
N1767       N  0.57847222  0.87033390  0.09136378    -0.89200
H1768       H  0.94640460  0.82711004  0.20092003     0.34900
H1769       H  0.97940310  0.84034271  0.23090296     0.40000
H1770       H  0.59413695  0.84515712  0.08715884     0.39600
H1771       H  0.59833837  0.89036605  0.09962841     0.34500
C1772       C  0.50586451  0.64857620  0.12399126    -0.27200
C1773       C  0.99556781  0.63933933  0.08964789    -0.15300
C1774       C  0.98514935  0.60186930  0.08116611     0.35300
C1775       C  0.98438889  0.57560866  0.10887421    -0.26700
C1776       C  0.99292069  0.58551418  0.14517814    -0.15900
C1777       C  0.50507019  0.62199659  0.15171737     0.36400
N1778       N  0.51755860  0.63227920  0.18782400    -0.90200
H1779       H  0.51594810  0.67649800  0.13010640     0.17500
H1780       H  0.97528395  0.54746514  0.10224284     0.17500
N1781       N  0.97382162  0.59062241  0.04484382    -0.89200
H1782       H  0.52556250  0.66032032  0.18916554     0.34900
H1783       H  0.54273860  0.61656363  0.19193259     0.40000
H1784       H  0.94713263  0.60385992  0.04075692     0.39600
H1785       H  0.96878179  0.56192848  0.04300604     0.34500
O1786       O  0.97451285  0.52699143  0.66567670    -0.81000
O1787       O  0.54154395  0.00978768  0.80473136    -0.81100
O1788       O  0.98496930  0.57316906  0.78244568    -0.81100
O1789       O  0.56128437  0.00907268  0.71897258    -0.81000
O1790       O  0.46725120  0.53447630  0.82402312    -0.81100
O1791       O  0.53405838  0.47924532  0.67355611    -0.81100
O1792       O  0.58237151  0.96743904  0.77799684    -0.81000
O1793       O  0.98775215  0.57019151  0.70807741    -0.81100
C1794       C  0.98579019  0.55986541  0.67460760     1.08600
C1795       C  0.57498459  0.99218258  0.80355463     1.08500
C1796       C  0.97698434  0.56737099  0.81587086     1.08700
C1797       C  0.55893160  0.99984617  0.68500851     1.08500
O1798       O  0.98222500  0.92850041  0.71406164    -0.81100
O1799       O  0.93351271  0.97315000  0.79067085    -0.81100
O1800       O  0.91350592  0.53748681  0.70709906    -0.81100
O1801       O  0.51255336  0.93728228  0.79344652    -0.81000
O1802       O  0.48731464  0.97046596  0.84142179    -0.81100
O1803       O  0.91986773  0.47716267  0.70376431    -0.81100
O1804       O  0.54257850  0.93161771  0.72128709    -0.81000
O1805       O  0.91040822  0.53112247  0.78256506    -0.81100
Co1806     Co  0.97617120  0.47792627  0.69216605     1.51500
Co1807     Co  0.48528831  0.99038862  0.79471498     1.51700
Co1808     Co  0.95158747  0.55031610  0.74550833     1.51600
Co1809     Co  0.53461922  0.97715856  0.75591205     1.51500
O1810       O  0.48564059  0.50095311  0.74147524    -1.43000
C1811       C  0.51403428  0.91365790  0.70914664     1.08600
C1812       C  0.90446987  0.49792439  0.79359242     1.08700
C1813       C  0.90324186  0.50625731  0.69376808     1.08600
C1814       C  0.50203566  0.94025172  0.82839005     1.08600
O1815       O  0.94357310  0.69479643  0.48876769    -0.81000
O1816       O  0.52256028  0.83321210  0.96902888    -0.81100
O1817       O  0.92840892  0.79720363  0.54570082    -0.81100
O1818       O  0.49749940  0.71788637  0.92009326    -0.81000
O1819       O  0.95854737  0.82389908  0.00371177    -0.81100
O1820       O  0.00904411  0.67277517  0.95819838    -0.81100
O1821       O  0.50458357  0.79317865  0.92623779    -0.81000
O1822       O  0.91958523  0.72394325  0.53765964    -0.81100
C1823       C  0.91505268  0.70149682  0.51110777     1.08600
C1824       C  0.51205850  0.82626921  0.93632100     1.08500
C1825       C  0.92932597  0.82259537  0.52258495     1.08700
C1826       C  0.49860025  0.68348571  0.92574948     1.08500
O1827       O  0.55387406  0.70499697  0.51568567    -0.81100
O1828       O  0.51618477  0.84025730  0.54847655    -0.81100
O1829       O  0.99251584  0.70522792  0.56949790    -0.81100
O1830       O  0.57654212  0.78485632  0.96102972    -0.81000
O1831       O  0.56300967  0.78678288  0.02024795    -0.81100
O1832       O  0.99437433  0.65813867  0.52795938    -0.81100
O1833       O  0.56975256  0.70909961  0.95846253    -0.81000
O1834       O  0.00565190  0.78660630  0.57620002    -0.81100
Co1835     Co  0.99713561  0.70284140  0.50420673     1.51500
Co1836     Co  0.50827877  0.80209614  0.01301443     1.51700
Co1837     Co  0.96619061  0.75349333  0.54928221     1.51600
Co1838     Co  0.53393596  0.75121600  0.94491844     1.51500
O1839       O  0.49476285  0.75430374  0.99156710    -1.43000
C1840       C  0.57646022  0.69821366  0.99048982     1.08600
C1841       C  0.01325199  0.82197023  0.57811533     1.08700
C1842       C  0.99334364  0.66948559  0.56121453     1.08600
C1843       C  0.58600317  0.79404339  0.99319984     1.08600
O1844       O  0.83262928  0.52219672  0.52857123    -0.81000
O1845       O  0.68677395  0.94870244  0.99728072    -0.81100
O1846       O  0.70797191  0.50032507  0.56713813    -0.81100
O1847       O  0.77617630  0.93249249  0.00375848    -0.81000
O1848       O  0.66302102  0.01808883  0.53102956    -0.81100
O1849       O  0.82688022  0.96605480  0.48163065    -0.81100
O1850       O  0.72056378  0.91332207  0.95521616    -0.81000
O1851       O  0.78618298  0.50170744  0.56658671    -0.81100
C1852       C  0.82149044  0.50868139  0.55945750     1.08600
C1853       C  0.69244562  0.91683030  0.97933146     1.08500
C1854       C  0.67301401  0.50871062  0.56246715     1.08700
C1855       C  0.81291127  0.93498011  0.99812516     1.09100
O1856       O  0.78993585  0.51617777  0.93090437    -0.81100
O1857       O  0.70092461  0.56043364  0.97609050    -0.81100
O1858       O  0.78595228  0.57700102  0.53835802    -0.81100
O1859       O  0.70767414  0.98336543  0.93020317    -0.81000
O1860       O  0.65241469  0.00296772  0.95926198    -0.81100
O1861       O  0.79323924  0.57070638  0.47834281    -0.81100
O1862       O  0.78217387  0.95406754  0.92837757    -0.81000
O1863       O  0.70734595  0.57419827  0.53458864    -0.81100
Co1864     Co  0.80704583  0.51765062  0.47920061     1.51500
Co1865     Co  0.69830570  0.00500740  0.98502751     1.51700
Co1866     Co  0.74699918  0.53592250  0.54925233     1.51600
Co1867     Co  0.74168159  0.95940908  0.97091405     1.51500
O1868       O  0.75193835  0.50810746  0.00067199    -1.43000
C1869       C  0.79325795  0.98272002  0.91154688     1.08600
C1870       C  0.69669201  0.58306299  0.50280293     1.08700
C1871       C  0.79710320  0.59009912  0.50732664     1.08600
C1872       C  0.67152579  0.99446921  0.92925293     1.08600
C1873       C  0.85877248  0.83968392  0.01886884    -0.27200
C1874       C  0.89800351  0.85179954  0.52119797    -0.15300
C1875       C  0.90819810  0.88981187  0.51980178     0.35300
C1876       C  0.87968459  0.91706765  0.51347391    -0.26700
C1877       C  0.84018321  0.90506850  0.00983123    -0.15900
C1878       C  0.83000762  0.86688159  0.01150955     0.36400
N1879       N  0.79110446  0.85558129  0.00429470    -0.90200
H1880       H  0.85149420  0.81036104  0.01847015     0.17500
H1881       H  0.88818080  0.94600544  0.51195884     0.17500
N1882       N  0.94775338  0.90064055  0.52483831    -0.89200
H1883       H  0.78830274  0.82677431  0.00703992     0.34900
H1884       H  0.78659018  0.86089237  0.97666978     0.40000
H1885       H  0.95408336  0.89457911  0.55188450     0.39600
H1886       H  0.95069596  0.92948870  0.52256869     0.34500
C1887       C  0.87177919  0.66096788  0.47497683    -0.27200
C1888       C  0.87830986  0.68026222  0.50829314    -0.15300
C1889       C  0.85265730  0.67452468  0.53958166     0.35300
C1890       C  0.82373690  0.64720216  0.53755299    -0.26700
C1891       C  0.81996879  0.62514424  0.50526535    -0.15900
C1892       C  0.84276203  0.63386238  0.47287347     0.36400
N1893       N  0.83809392  0.61385126  0.43836294    -0.90200
H1894       H  0.89066354  0.66582900  0.45071214     0.17500
H1895       H  0.80584189  0.64137637  0.56218660     0.17500
N1896       N  0.85752264  0.69444260  0.57408366    -0.89200
H1897       H  0.85840687  0.62241633  0.41792325     0.34900
H1898       H  0.81056947  0.62099905  0.42954940     0.40000
H1899       H  0.88311916  0.68428041  0.58474783     0.39600
H1900       H  0.83492088  0.68850330  0.59343881     0.34500
C1901       C  0.60394417  0.85884051  0.00698942    -0.27200
C1902       C  0.61672783  0.82239452  0.99685652    -0.15300
C1903       C  0.65557267  0.81671748  0.98235575     0.35300
C1904       C  0.68005302  0.84770446  0.97787512    -0.26700
C1905       C  0.66672814  0.88442679  0.98724801    -0.15900
C1906       C  0.62806544  0.88977846  0.00209848     0.36400
N1907       N  0.61624505  0.92494384  0.51876619    -0.90200
H1908       H  0.57377821  0.86372445  0.01609636     0.17500
H1909       H  0.70957974  0.84299790  0.96633776     0.17500
N1910       N  0.67086094  0.78022609  0.97121878    -0.89200
H1911       H  0.58378007  0.92571407  0.02143431     0.34900
H1912       H  0.61080691  0.93992327  0.98484686     0.40000
H1913       H  0.65043627  0.75957691  0.97680328     0.39600
H1914       H  0.69432579  0.77464637  0.98748652     0.34500
C1915       C  0.64600008  0.62910734  0.03235005    -0.27200
C1916       C  0.67244305  0.61753889  0.49966879    -0.15300
C1917       C  0.66632156  0.63345984  0.46533131     0.35300
C1918       C  0.63738192  0.66150761  0.46321800    -0.26700
C1919       C  0.61080968  0.67314269  0.99587922    -0.15900
C1920       C  0.61688045  0.65676471  0.03008334     0.36400
N1921       N  0.59273987  0.66694090  0.06247304    -0.90200
H1922       H  0.64891666  0.61598368  0.05857508     0.17500
H1923       H  0.63197093  0.67247653  0.43647427     0.17500
N1924       N  0.68875794  0.62051217  0.43258890    -0.89200
H1925       H  0.61071933  0.67674424  0.08288376     0.34900
H1926       H  0.57923642  0.64281882  0.07193963     0.40000
H1927       H  0.71788432  0.62714489  0.43617394     0.39600
H1928       H  0.68037027  0.63475657  0.40953852     0.34500
C1929       C  0.84066442  0.51813702  0.82446912    -0.27200
C1930       C  0.86859124  0.48955554  0.81653728    -0.15300
C1931       C  0.86502523  0.45586920  0.83585781     0.35300
C1932       C  0.83756168  0.95062028  0.86322840    -0.26700
C1933       C  0.81261770  0.98082454  0.87394883    -0.15900
C1934       C  0.81214144  0.01221647  0.85151757     0.36400
N1935       N  0.78367690  0.04151449  0.85907149    -0.90200
H1936       H  0.84197177  0.54372161  0.80938801     0.17500
H1937       H  0.83738787  0.92576289  0.87944781     0.17500
N1938       N  0.89102718  0.42476034  0.82713594    -0.89200
H1939       H  0.76990903  0.55027265  0.83944988     0.34900
H1940       H  0.79835951  0.06634271  0.86414657     0.40000
H1941       H  0.87430090  0.40152675  0.82073288     0.39600
H1942       H  0.90643874  0.91604888  0.84778148     0.34500
C1943       C  0.61901041  0.02239788  0.89415361    -0.27200
C1944       C  0.65202226  0.99874729  0.89392277    -0.15300
C1945       C  0.66302296  0.97762430  0.86132288     0.35300
C1946       C  0.63855992  0.97786874  0.83127913    -0.26700
C1947       C  0.60349965  0.99909090  0.83276583    -0.15900
C1948       C  0.59479004  0.02281431  0.86444955     0.36400
N1949       N  0.56100649  0.04684130  0.86827788    -0.90200
H1950       H  0.61081980  0.03981494  0.91848070     0.17500
H1951       H  0.64625032  0.96009671  0.80712812     0.17500
N1952       N  0.69604121  0.45080148  0.86120715    -0.89200
H1953       H  0.53596413  0.03062699  0.86884882     0.34900
H1954       H  0.56133222  0.06449009  0.84591320     0.40000
H1955       H  0.72119618  0.46688509  0.86100124     0.39600
H1956       H  0.69810053  0.43435642  0.83676756     0.34500
C1957       C  0.57868135  0.52061790  0.62218175    -0.27200
C1958       C  0.58835580  0.01038842  0.65630511    -0.15300
C1959       C  0.62854940  0.00862721  0.66168704     0.35300
C1960       C  0.65502364  0.00835730  0.63066619    -0.26700
C1961       C  0.64407758  0.51017789  0.59445810    -0.15900
C1962       C  0.60463021  0.52074501  0.59099046     0.36400
N1963       N  0.59063382  0.53071993  0.55592392    -0.90200
H1964       H  0.54804636  0.52647606  0.61909199     0.17500
H1965       H  0.68593924  0.00583935  0.63479004     0.17500
N1966       N  0.64224144  0.00481746  0.69813823    -0.89200
H1967       H  0.56148012  0.53977116  0.55887152     0.34900
H1968       H  0.59110386  0.50647046  0.53903611     0.40000
H1969       H  0.63502915  0.02959056  0.71323271     0.39600
H1970       H  0.67266316  0.00240010  0.69704866     0.34500
C1971       C  0.88044455  0.53833282  0.63907396    -0.27200
C1972       C  0.88138357  0.50559224  0.65950270    -0.15300
C1973       C  0.86636565  0.47245553  0.64402443     0.35300
C1974       C  0.84587230  0.97351164  0.61345305    -0.26700
C1975       C  0.84759690  0.50621044  0.59008000    -0.15900
C1976       C  0.86418047  0.53874885  0.60454374     0.36400
N1977       N  0.86300050  0.57278455  0.58499223    -0.90200
H1978       H  0.89298737  0.56387756  0.64955991     0.17500
H1979       H  0.83144803  0.94884178  0.60323874     0.17500
N1980       N  0.86564974  0.93824074  0.66645271    -0.89200
H1981       H  0.89162086  0.58181240  0.58052116     0.34900
H1982       H  0.84781403  0.59293362  0.60192353     0.40000
H1983       H  0.87985965  0.91793802  0.64891040     0.39600
H1984       H  0.83700243  0.92971626  0.67195741     0.34500
C1985       C  0.99343343  0.63256986  0.83388793    -0.27200
C1986       C  0.98017035  0.59743127  0.84462015    -0.15300
C1987       C  0.46791141  0.59225779  0.88174901     0.35300
C1988       C  0.47436757  0.62111456  0.90775666    -0.26700
C1989       C  0.48896703  0.65564016  0.89678471    -0.15900
C1990       C  0.99877055  0.66139786  0.85990723     0.36400
N1991       N  0.01334829  0.69609583  0.84683624    -0.90200
H1992       H  0.00031039  0.63768708  0.80498025     0.17500
H1993       H  0.46800772  0.61658464  0.93687267     0.17500
N1994       N  0.45183757  0.55762052  0.89388289    -0.89200
H1995       H  0.03918999  0.70209257  0.85961328     0.34900
H1996       H  0.99263759  0.71719989  0.85379152     0.40000
H1997       H  0.42421429  0.55528321  0.88331698     0.39600
H1998       H  0.44743255  0.55804028  0.92266706     0.34500
C1999       C  0.00244511  0.84516286  0.87291749    -0.27200
C2000       C  0.51008014  0.85590145  0.90885788    -0.15300
C2001       C  0.51745075  0.89368830  0.91790490     0.35300
C2002       C  0.51580837  0.92007307  0.89040883    -0.26700
C2003       C  0.50676145  0.90988853  0.85412526    -0.15900
C2004       C  0.00097848  0.87157262  0.84544089     0.36400
N2005       N  0.99269793  0.85921283  0.80875984    -0.90200
H2006       H  0.99809915  0.81613611  0.86508270     0.17500
H2007       H  0.52127665  0.94909827  0.89749948     0.17500
N2008       N  0.52649289  0.90536391  0.95475493    -0.89200
H2009       H  0.01623387  0.86584412  0.79075874     0.34900
H2010       H  0.96781246  0.87349719  0.80109980     0.40000
H2011       H  0.50129727  0.90229132  0.97183207     0.39600
H2012       H  0.53302370  0.93377002  0.95609219     0.34500
C2013       C  0.99190663  0.83474642  0.64375988    -0.27200
C2014       C  0.01980968  0.83983400  0.61466282    -0.15300
C2015       C  0.55127001  0.86205647  0.62142702     0.35300
C2016       C  0.55123324  0.88347414  0.65481453    -0.26700
C2017       C  0.51971949  0.88243198  0.68124350    -0.15900
C2018       C  0.99244615  0.85615504  0.67696764     0.36400
N2019       N  0.96227195  0.85226030  0.70563165    -0.90200
H2020       H  0.96819752  0.81567741  0.63969442     0.17500
H2021       H  0.57455490  0.90295075  0.65898169     0.17500
N2022       N  0.58337862  0.86378537  0.59450067    -0.89200
H2023       H  0.94265078  0.83177004  0.69803126     0.34900
H2024       H  0.97554563  0.84277376  0.72893103     0.40000
H2025       H  0.59636766  0.83716954  0.59176848     0.39600
H2026       H  0.60465328  0.88180537  0.60386765     0.34500
C2027       C  0.50589510  0.64972132  0.62415677    -0.27200
C2028       C  0.99426020  0.64102184  0.58985298    -0.15300
C2029       C  0.98352035  0.60363895  0.58176598     0.35300
C2030       C  0.98328330  0.57757289  0.60953088    -0.26700
C2031       C  0.99256160  0.58762291  0.64558761    -0.15900
C2032       C  0.50510076  0.62356920  0.65230362     0.36400
N2033       N  0.51672161  0.63460331  0.68851961    -0.90200
H2034       H  0.51517193  0.67795575  0.63009355     0.17500
H2035       H  0.97412174  0.54940703  0.60309721     0.17500
N2036       N  0.97152649  0.59228055  0.54569911    -0.89200
H2037       H  0.52413868  0.66280480  0.68961270     0.34900
H2038       H  0.54210967  0.61944914  0.69323850     0.40000
H2039       H  0.94527039  0.60627290  0.54153391     0.39600
H2040       H  0.96557801  0.56375217  0.54427106     0.34500
loop_ 
_geom_bond_atom_site_label_1 
_geom_bond_atom_site_label_2 
_geom_bond_distance 
_geom_bond_site_symmetry_2 
_ccdc_geom_bond_type 
O1            C9   1.282       .  A
O1          Co21   2.037   1_545  S
O2           C10   1.299       .  A
O2          Co22   2.106   1_455  S
O3           C11   1.252       .  A
O3          Co23   1.975       .  S
O4           C12   1.271       .  A
O4          Co24   1.984       .  S
O5         C1031   1.254       .  A
O5         Co532   1.993   1_545  S
O6          C522   1.269       .  A
O6        Co1041   1.989   1_455  S
O7           C10   1.272       .  A
O7          Co24   1.893       .  S
O8            C9   1.263       .  A
O8          Co23   1.953       .  S
C9          C246   1.490       .  S
C10         C162   1.495       .  S
C11        O1025   1.254       .  A
C11         C201   1.480       .  S
C12         O516   1.269       .  A
C12         C173   1.469       .  S
O13        C1046   1.258       .  A
O13        Co531   1.967       .  S
O14         C537   1.265       .  A
O14       Co1042   1.959       .  S
O15          C28   1.266       .  A
O15         Co23   2.010       .  S
O16          C29   1.298       .  A
O16         Co24   2.125       .  S
O17          C29   1.253   1_655  A
O17         Co22   1.866       .  S
O18          C28   1.256   1_565  A
O18         Co21   1.960       .  S
O19          C26   1.269       .  A
O19         Co24   2.016       .  S
O20          C27   1.285   1_545  A
O20         Co23   2.045       .  S
Co21       O1026   1.991       .  S
Co21        O523   1.970       .  S
Co21       O1045   2.009   1_565  S
Co22        O515   1.986       .  S
Co22       O1034   1.955       .  S
Co22        O535   1.975       .  S
Co23       O1045   2.041       .  S
Co24        O535   2.023   1_455  S
O25       Co1041   2.006   1_545  S
O25        Co532   1.974   1_545  S
O25       Co1043   2.042       .  S
O25        Co534   2.020   1_645  S
C26        O1033   1.260   1_455  A
C26         C232   1.477       .  S
C27         O524   1.265       .  A
C27         C145   1.492       .  S
C28         C187   1.484       .  S
C29         C218   1.466       .  S
O30          C38   1.250   1_556  A
O30         Co50   1.979   1_556  S
O31          C39   1.277       .  A
O31         Co51   2.019       .  S
O32          C40   1.257       .  A
O32         Co52   2.030       .  S
O33          C41   1.258       .  A
O33         Co53   1.976   1_655  S
O34         C295   1.241       .  A
O34       Co1071   1.952       .  S
O35        C1061   1.260       .  A
O35        Co305   1.990       .  S
O36          C39   1.265       .  A
O36         Co53   1.959       .  S
O37          C38   1.253       .  A
O37         Co52   1.993       .  S
C38         C103   1.493       .  S
C39         C215   1.482       .  S
C40         O289   1.243       .  A
C40          C89   1.493       .  S
C41        O1055   1.260   1_655  A
C41         C204   1.469       .  S
O42         C310   1.263   1_554  A
O42       Co1070   1.991   1_455  S
O43        C1076   1.276       .  A
O43        Co306   1.902       .  S
O44          C57   1.306       .  A
O44         Co52   2.113       .  S
O45          C58   1.263       .  A
O45         Co53   2.008       .  S
O46          C58   1.263       .  A
O46         Co51   1.984       .  S
O47          C57   1.258       .  A
O47         Co50   1.856       .  S
O48          C55   1.270       .  A
O48         Co53   2.023       .  S
O49          C56   1.299       .  A
O49         Co52   2.079       .  S
Co50        O290   1.990   1_554  S
Co50       O1062   1.993       .  S
Co50       O1329   1.917   1_554  S
Co51       O1054   1.957   1_455  S
Co51        O298   1.904       .  S
Co51         O54   1.934   1_455  S
Co52       O1329   2.259   1_554  S
Co53         O54   2.098   1_455  S
O54       Co1325   1.910       .  S
O54       Co1327   2.259       .  S
C55         O297   1.262       .  A
C55         C134   1.499       .  S
C56        O1063   1.275       .  A
C56         C229   1.477       .  S
C57         C243   1.488       .  S
C58         C117   1.487       .  S
O59          C67   1.277       .  A
O59         Co79   2.042   1_554  S
O60          C68   1.303       .  A
O60         Co80   2.124       .  S
O61          C69   1.255   1_565  A
O61         Co81   1.966   1_565  S
O62          C70   1.271       .  A
O62         Co82   1.989       .  S
O63         C579   1.262       .  A
O63        Co335   2.005   1_554  S
O64         C325   1.280       .  A
O64        Co589   2.027       .  S
O65          C68   1.267       .  A
O65         Co82   1.891       .  S
O66          C67   1.255       .  A
O66         Co81   1.950       .  S
C67         C190   1.476       .  S
C68         C120   1.499       .  S
C69         O573   1.261       .  A
C69         C176   1.486       .  S
C70         O319   1.280       .  A
C70          C92   1.502       .  S
O71         C594   1.254   1_545  A
O71        Co334   1.967       .  S
O72         C340   1.270       .  A
O72        Co590   1.979       .  S
O73          C86   1.276       .  A
O73         Co81   2.039       .  S
O74          C87   1.298       .  A
O74         Co82   2.123       .  S
O75          C87   1.265       .  A
O75         Co80   1.880       .  S
O76          C86   1.255   1_556  A
O76         Co79   1.956       .  S
O77          C84   1.265       .  A
O77         Co82   2.018       .  S
O78          C85   1.278       .  A
O78         Co81   2.031       .  S
Co79        O574   2.032   1_545  S
Co79        O326   1.972       .  S
Co79        O338   2.017       .  S
Co80        O318   2.005       .  S
Co80        O582   1.986       .  S
Co80        O593   1.993       .  S
Co81        O338   2.034   1_554  S
Co82        O593   2.015       .  S
O83        Co334   2.013       .  S
O83        Co590   1.994       .  S
O83        Co336   2.033       .  S
O83        Co592   2.016   1_545  S
C84         O581   1.253       .  A
C84         C148   1.479       .  S
C85         O327   1.270   1_554  A
C85         C131   1.500   1_554  S
C86         C106   1.497       .  S
C87         C159   1.485       .  S
C88          C93   1.421       .  A
C88         C344   1.406       .  A
C88          H95   1.083       .  S
C89          C90   1.413       .  A
C89         C343   1.406       .  A
C90          C91   1.406       .  A
C90          N97   1.438       .  S
C91         C347   1.405       .  A
C91          H96   1.084       .  S
C92          C93   1.421       .  A
C92         C346   1.405       .  A
C93          N94   1.437       .  S
N94          H98   1.046       .  S
N94          H99   1.046       .  S
N97         H100   1.046       .  S
N97         H101   1.046       .  S
C102        C103   1.403   1_556  A
C102        C107   1.409       .  A
C102        H109   1.084       .  S
C103        C104   1.419       .  A
C104        C105   1.408       .  A
C104        N111   1.438       .  S
C105        C106   1.403       .  A
C105        H110   1.083       .  S
C106        C107   1.422   1_554  A
C107        N108   1.438       .  S
N108        H112   1.045       .  S
N108        H113   1.046       .  S
N111        H114   1.046       .  S
N111        H115   1.045       .  S
C116        C117   1.402       .  A
C116        C121   1.405       .  A
C116        H123   1.075       .  S
C117        C118   1.416       .  A
C118        C119   1.410       .  A
C118        N125   1.439       .  S
C119        C120   1.413       .  A
C119        H124   1.084       .  S
C120        C121   1.414       .  A
C121        N377   1.438       .  S
N122        C376   1.438       .  S
N122        H381   1.046       .  S
N122        H382   1.046   1_554  S
N125        H128   1.044       .  S
N125        H129   1.046       .  S
H126        N377   1.045       .  S
H127        N377   1.046       .  S
C130        C135   1.407       .  A
C130        C386   1.408       .  A
C130        H137   1.084       .  S
C131        C132   1.415       .  A
C131        C385   1.410   1_556  A
C132        C133   1.412       .  A
C132        N139   1.438       .  S
C133        C389   1.410       .  A
C133        H138   1.083       .  S
C134        C135   1.413       .  A
C134        C388   1.409       .  A
C135        N136   1.433       .  S
N136        H140   1.045       .  S
N136        H141   1.046       .  S
N139        H142   1.045       .  S
N139        H143   1.046       .  S
C144        C145   1.404   1_545  A
C144        C659   1.403       .  A
C144        H151   1.083       .  S
C145        C146   1.420       .  A
C146        C657   1.404       .  A
C146        N153   1.432       .  S
C147        C148   1.400       .  A
C147        C656   1.405       .  A
C147        H152   1.084       .  S
C148        C149   1.412       .  A
C149        C654   1.401       .  A
C149        N150   1.433       .  S
N150        H155   1.046       .  S
N150        H664   1.046       .  S
N153        H156   1.046       .  S
N153        H667   1.046       .  S
H154        N660   1.046       .  S
H157        N663   1.046       .  S
C158        C159   1.403       .  A
C158        C163   1.397       .  A
C158        H165   1.084       .  S
C159        C160   1.411       .  A
C160        C161   1.410       .  A
C160        N677   1.438       .  S
C161        C162   1.411       .  A
C161        H166   1.083       .  S
C162        C163   1.420       .  A
C163        N164   1.432       .  S
N164        H168   1.045       .  S
N164        H169   1.045       .  S
N167        C670   1.438       .  S
N167        H170   1.046       .  S
N167        H171   1.045       .  S
C172        C177   1.401       .  A
C172        C683   1.404       .  A
C172        H179   1.083       .  S
C173        C174   1.405       .  A
C173        C682   1.403       .  A
C174        C175   1.405       .  A
C174        N181   1.438       .  S
C175        C686   1.411       .  A
C175        H180   1.083       .  S
C176        C177   1.414       .  A
C176        C685   1.412       .  A
C177        N178   1.438       .  S
N178        H182   1.046       .  S
N178        H183   1.045   1_545  S
N181        H184   1.045       .  S
N181        H185   1.046       .  S
C186        C187   1.409       .  A
C186        C191   1.403       .  A
C186        H193   1.083       .  S
C187        C188   1.408   1_545  A
C188        C699   1.406       .  A
C188        N705   1.432       .  S
C189        C698   1.409       .  A
C189        C700   1.406       .  A
C189        H194   1.084       .  S
C190        C191   1.408       .  A
C190        C699   1.408   1_545  A
C191        N192   1.438       .  S
N192        H196   1.046       .  S
N192        H197   1.044       .  S
N195        C698   1.432       .  S
N195        H198   1.046       .  S
N195        H199   1.045       .  S
C200        C201   1.406       .  A
C200        C205   1.396       .  A
C200        H207   1.084       .  S
C201       C1222   1.416       .  A
C202        C203   1.404       .  A
C202       C1221   1.416       .  A
C202        N209   1.439       .  S
C203        C204   1.402       .  A
C203        H208   1.084       .  S
C204       C1225   1.411   1_655  A
C205       C1224   1.412       .  A
C205        N206   1.433       .  S
N206        H210   1.046       .  S
N206        H211   1.045       .  S
N209        H212   1.046       .  S
N209        H213   1.046       .  S
C214        C219   1.396       .  A
C214       C1235   1.413       .  A
C214        H221   1.083       .  S
C215        C216   1.413       .  A
C215       C1234   1.413   1_455  A
C216        C217   1.401       .  A
C216        N223   1.439       .  S
C217        C218   1.405       .  A
C217        H222   1.085       .  S
C218       C1239   1.404   1_455  A
C219       C1238   1.403       .  A
C219        N220   1.432       .  S
N220        H224   1.045       .  S
N220        H225   1.046       .  S
N223        H226   1.044       .  S
N223        H227   1.046       .  S
C228        C229   1.402       .  A
C228        C233   1.404       .  A
C228        H235   1.084       .  S
C229       C1250   1.410       .  A
C230        C231   1.407       .  A
C230       C1249   1.409       .  A
C230        N237   1.434       .  S
C231        C232   1.405       .  A
C231        H236   1.084       .  S
C232       C1253   1.410   1_455  A
C233       C1252   1.410       .  A
C233        N234   1.437       .  S
N234        H238   1.045       .  S
N234        H239   1.045       .  S
N237        H240   1.046       .  S
N237        H241   1.045       .  S
C242        C247   1.409       .  A
C242       C1263   1.402   1_455  A
C242        H249   1.083       .  S
C243        C244   1.422       .  A
C243       C1262   1.401       .  A
C244        C245   1.401       .  A
C244        N251   1.440       .  S
C245        C246   1.401       .  A
C245        H250   1.083       .  S
C246       C1267   1.421       .  A
C247       C1266   1.419   1_455  A
C247        N248   1.438       .  S
N248        H252   1.046       .  S
N248        H253   1.046       .  S
N251        H254   1.046       .  S
N251        H255   1.046       .  S
O256        C264   1.282       .  A
O256       Co276   2.034   1_545  S
O257        C265   1.301       .  A
O257       Co277   2.112   1_455  S
O258        C266   1.251       .  A
O258       Co278   1.972       .  S
O259        C267   1.272       .  A
O259       Co279   1.985       .  S
O260       C1286   1.254       .  A
O260       Co787   1.994   1_545  S
O261        C777   1.270   1_565  A
O261      Co1296   1.990   1_455  S
O262        C265   1.272       .  A
O262       Co279   1.892       .  S
O263        C264   1.265       .  A
O263       Co278   1.956       .  S
C264        C501   1.488       .  S
C265        C417   1.497       .  S
C266       O1280   1.253       .  A
C266        C456   1.479       .  S
C267        O771   1.269       .  A
C267        C428   1.468       .  S
O268       C1301   1.260       .  A
O268       Co786   1.975       .  S
O269        C792   1.265       .  A
O269      Co1297   1.956       .  S
O270        C283   1.265       .  A
O270       Co278   2.002       .  S
O271        C284   1.298       .  A
O271       Co279   2.128       .  S
O272        C284   1.253   1_655  A
O272       Co277   1.861       .  S
O273        C283   1.255   1_565  A
O273       Co276   1.958       .  S
O274        C281   1.269       .  A
O274       Co279   2.019       .  S
O275        C282   1.285   1_545  A
O275       Co278   2.048       .  S
Co276      O1281   1.990       .  S
Co276       O778   1.967       .  S
Co276      O1300   2.006   1_565  S
Co277       O770   1.988       .  S
Co277      O1289   1.954       .  S
Co277       O790   1.969       .  S
Co278      O1300   2.043       .  S
Co279       O790   2.023   1_455  S
O280      Co1296   2.005   1_545  S
O280       Co787   1.970   1_545  S
O280      Co1298   2.041       .  S
O280       Co789   2.027   1_645  S
C281       O1288   1.260   1_455  A
C281        C487   1.481       .  S
C282        O779   1.264       .  A
C282        C400   1.493       .  S
C283        C442   1.482       .  S
C284        C473   1.470       .  S
O285        C293   1.252       .  A
O285       Co305   1.978       .  S
O286        C294   1.278       .  A
O286       Co306   2.023   1_556  S
O287        C295   1.259       .  A
O287       Co307   2.037       .  S
O288        C296   1.259       .  A
O288       Co308   1.975   1_655  S
O289      Co1326   1.961       .  S
O290       C1316   1.261       .  A
O291        C294   1.264       .  A
O291       Co308   1.957       .  S
O292        C293   1.253       .  A
O292       Co307   1.990       .  S
C293        C358   1.490       .  S
C294        C470   1.483       .  S
C295        C344   1.494       .  S
C296       O1310   1.261   1_655  A
C296        C459   1.468       .  S
O297      Co1325   1.989   1_455  S
O298       C1331   1.275       .  A
O299        C312   1.306       .  A
O299       Co307   2.115       .  S
O300        C313   1.262       .  A
O300       Co308   2.006       .  S
O301        C313   1.262   1_554  A
O301       Co306   1.982       .  S
O302        C312   1.257       .  A
O302       Co305   1.851       .  S
O303        C310   1.269       .  A
O303       Co308   2.020       .  S
O304        C311   1.299       .  A
O304       Co307   2.079       .  S
Co305      O1317   1.988       .  S
Co305      O1074   1.910       .  S
Co306      O1309   1.957   1_455  S
Co306       O309   1.940   1_454  S
Co307      O1074   2.261       .  S
Co308       O309   2.099   1_455  S
O309      Co1070   1.915   1_556  S
O309      Co1072   2.258   1_556  S
C310        C389   1.499       .  S
C311       O1318   1.276       .  A
C311        C484   1.484       .  S
C312        C498   1.485       .  S
C313        C372   1.485       .  S
O314        C322   1.277       .  A
O314       Co334   2.038       .  S
O315        C323   1.302       .  A
O315       Co335   2.123       .  S
O316        C324   1.253   1_565  A
O316       Co336   1.962   1_565  S
O317        C325   1.272   1_554  A
O317       Co337   1.989   1_554  S
O318        C834   1.262       .  A
O319       Co844   2.028       .  S
O320        C323   1.267       .  A
O320       Co337   1.890       .  S
O321        C322   1.255       .  A
O321       Co336   1.949       .  S
C322        C445   1.470       .  S
C323        C375   1.496       .  S
C324        O828   1.260       .  A
C324        C431   1.482       .  S
C325        C347   1.499   1_556  S
O326        C849   1.254   1_545  A
O327       Co845   1.982       .  S
O328        C341   1.275       .  A
O328       Co336   2.039       .  S
O329        C342   1.300       .  A
O329       Co337   2.126       .  S
O330        C342   1.265       .  A
O330       Co335   1.881       .  S
O331        C341   1.255       .  A
O331       Co334   1.958       .  S
O332        C339   1.264       .  A
O332       Co337   2.012       .  S
O333        C340   1.280       .  A
O333       Co336   2.034       .  S
Co334       O829   2.029   1_545  S
Co335       O837   1.982       .  S
Co335       O848   1.991       .  S
Co337       O848   2.012       .  S
O338       Co845   1.996       .  S
O338       Co847   2.015   1_545  S
C339        O836   1.255       .  A
C339        C403   1.476       .  S
C340        C386   1.497       .  S
C341        C361   1.497       .  S
C342        C414   1.488       .  S
C343        C348   1.420       .  A
C343        H350   1.083       .  S
C344        C345   1.413       .  A
C345        C346   1.404       .  A
C345        N352   1.438       .  S
C346        H351   1.084       .  S
C347        C348   1.419       .  A
C348        N349   1.437       .  S
N349        H353   1.045       .  S
N349        H354   1.046   1_554  S
N352        H355   1.045       .  S
N352        H356   1.046       .  S
C357        C358   1.402       .  A
C357        C362   1.408       .  A
C357        H364   1.084       .  S
C358        C359   1.419       .  A
C359        C360   1.408       .  A
C359        N366   1.439       .  S
C360        C361   1.403       .  A
C360        H365   1.083       .  S
C361        C362   1.421       .  A
C362        N363   1.438       .  S
N363        H367   1.046       .  S
N363        H368   1.046       .  S
N366        H369   1.046       .  S
N366        H370   1.046       .  S
C371        C372   1.403   1_554  A
C371        C376   1.405       .  A
C371        H378   1.077       .  S
C372        C373   1.415       .  A
C373        C374   1.409       .  A
C373        N380   1.439       .  S
C374        C375   1.411       .  A
C374        H379   1.084       .  S
C375        C376   1.413   1_556  A
N380        H383   1.044       .  S
N380        H384   1.045       .  S
C385        C390   1.408       .  A
C385        H392   1.083       .  S
C386        C387   1.415       .  A
C387        C388   1.412       .  A
C387        N394   1.438       .  S
C388        H393   1.083       .  S
C389        C390   1.412   1_556  A
C390        N391   1.432       .  S
N391        H395   1.045       .  S
N391        H396   1.046       .  S
N394        H397   1.045       .  S
N394        H398   1.046       .  S
C399        C400   1.404   1_545  A
C399        C914   1.404       .  A
C399        H406   1.083       .  S
C400        C401   1.421       .  A
C401        C912   1.406       .  A
C401        N408   1.433       .  S
C402        C911   1.404       .  A
C402        C403   1.400       .  A
C402        H407   1.084       .  S
C403        C404   1.409       .  A
C404        C909   1.402       .  A
C404        N405   1.433       .  S
N405        H919   1.045       .  S
N405        H410   1.046       .  S
N408        H411   1.046       .  S
N408        H922   1.046       .  S
H409        N915   1.046       .  S
H412        N918   1.046       .  S
C413        C414   1.404       .  A
C413        C418   1.398       .  A
C413        H420   1.084       .  S
C414        C415   1.411       .  A
C415        C416   1.411       .  A
C415        N932   1.438       .  S
C416        C417   1.411       .  A
C416        H421   1.083       .  S
C417        C418   1.420       .  A
C418        N419   1.432       .  S
N419        H423   1.044       .  S
N419        H424   1.046       .  S
N422        C925   1.438       .  S
N422        H425   1.045       .  S
N422        H426   1.046       .  S
C427        C938   1.402       .  A
C427        C432   1.399       .  A
C427        H434   1.083       .  S
C428        C937   1.403       .  A
C428        C429   1.404       .  A
C429        C430   1.405       .  A
C429        N436   1.438       .  S
C430        C941   1.411       .  A
C430        H435   1.083       .  S
C431        C940   1.411       .  A
C431        C432   1.413       .  A
C432        N433   1.439       .  S
N433        H437   1.046       .  S
N433        H438   1.045       .  S
N436        H439   1.045       .  S
N436        H440   1.045       .  S
C441        C442   1.408       .  A
C441        C446   1.397       .  A
C441        H448   1.084       .  S
C442        C443   1.410   1_545  A
C443        C954   1.407       .  A
C443        N960   1.432       .  S
C444        C953   1.408       .  A
C444        C955   1.404       .  A
C444        H449   1.084       .  S
C445        C954   1.407   1_545  A
C445        C446   1.403       .  A
C446        N447   1.432       .  S
N447        H451   1.045       .  S
N447        H452   1.045       .  S
N450        C953   1.432       .  S
N450        H453   1.046       .  S
N450        H454   1.045       .  S
C455        C456   1.406       .  A
C455        C460   1.395       .  A
C455        H462   1.084       .  S
C456       C1477   1.415       .  A
C457       C1476   1.415       .  A
C457        C458   1.403       .  A
C457        N464   1.438       .  S
C458        C459   1.401       .  A
C458        H463   1.084       .  S
C459       C1480   1.411   1_655  A
C460       C1479   1.412       .  A
C460        N461   1.433       .  S
N461        H465   1.046       .  S
N461        H466   1.044       .  S
N464        H467   1.046       .  S
N464        H468   1.046       .  S
C469       C1490   1.412       .  A
C469        C474   1.396       .  A
C469        H476   1.083       .  S
C470       C1489   1.413       .  A
C470        C471   1.411       .  A
C471        C472   1.400       .  A
C471        N478   1.438       .  S
C472        C473   1.407       .  A
C472        H477   1.084       .  S
C473       C1494   1.405       .  A
C474       C1493   1.405       .  A
C474        N475   1.432       .  S
N475        H479   1.045       .  S
N475        H480   1.046       .  S
N478        H481   1.044   1_455  S
N478        H482   1.047       .  S
C483        C484   1.405       .  A
C483        C488   1.408       .  A
C483        H490   1.084       .  S
C484       C1505   1.410       .  A
C485       C1504   1.409       .  A
C485        C486   1.408       .  A
C485        N492   1.434       .  S
C486        C487   1.406       .  A
C486        H491   1.084       .  S
C487       C1508   1.410   1_455  A
C488       C1507   1.409       .  A
C488        N489   1.437       .  S
N489        H493   1.045       .  S
N489        H494   1.046       .  S
N492        H495   1.046       .  S
N492        H496   1.045       .  S
C497       C1518   1.401   1_455  A
C497        C502   1.406       .  A
C497        H504   1.083       .  S
C498       C1517   1.401       .  A
C498        C499   1.422       .  A
C499        C500   1.400       .  A
C499        N506   1.440       .  S
C500        C501   1.401       .  A
C500        H505   1.083       .  S
C501       C1522   1.419       .  A
C502       C1521   1.420   1_455  A
C502        N503   1.438       .  S
N503        H507   1.046       .  S
N503        H508   1.045       .  S
N506        H509   1.046       .  S
N506        H510   1.045       .  S
O511        C519   1.282       .  A
O511       Co531   2.038       .  S
O512        C520   1.301   1_545  A
O512       Co532   2.114   1_445  S
O513        C521   1.253       .  A
O513       Co533   1.974       .  S
O514        C522   1.272   1_545  A
O514       Co534   1.987   1_545  S
O515       C1541   1.251       .  A
O516      Co1551   1.990   1_455  S
O517        C520   1.272       .  A
O517       Co534   1.890       .  S
O518        C519   1.263       .  A
O518       Co533   1.951       .  S
C519        C756   1.487       .  S
C520        C672   1.496       .  S
C521       O1535   1.254       .  A
C521        C711   1.483       .  S
C522        C683   1.472   1_565  S
O523       C1556   1.259       .  A
O524      Co1552   1.956       .  S
O525        C538   1.267       .  A
O525       Co533   2.007       .  S
O526        C539   1.298       .  A
O526       Co534   2.126       .  S
O527        C539   1.256   1_655  A
O527       Co532   1.866       .  S
O528        C538   1.254       .  A
O528       Co531   1.956       .  S
O529        C536   1.270       .  A
O529       Co534   2.018       .  S
O530        C537   1.283       .  A
O530       Co533   2.036       .  S
Co531      O1536   1.987       .  S
Co531      O1555   2.008       .  S
Co532      O1544   1.960       .  S
Co533      O1555   2.040       .  S
O535      Co1551   2.012       .  S
O535      Co1553   2.038       .  S
C536       O1543   1.259   1_455  A
C536        C742   1.478       .  S
C537        C655   1.489       .  S
C538        C697   1.485       .  S
C539        C728   1.470       .  S
O540        C548   1.249   1_556  A
O540       Co560   1.971   1_556  S
O541        C549   1.277       .  A
O541       Co561   2.020       .  S
O542        C550   1.258       .  A
O542       Co562   2.031       .  S
O543        C551   1.258   1_655  A
O543       Co563   1.973   1_655  S
O544        C805   1.241       .  A
O544      Co1581   1.954       .  S
O545       C1571   1.263       .  A
O545       Co815   1.995       .  S
O546        C549   1.264       .  A
O546       Co563   1.961       .  S
O547        C548   1.252       .  A
O547       Co562   1.989       .  S
C548        C613   1.486       .  S
C549        C725   1.484       .  S
C550        O799   1.243       .  A
C550        C599   1.492       .  S
C551       O1565   1.262       .  A
C551        C714   1.470   1_455  S
O552        C820   1.262   1_554  A
O552      Co1580   1.994   1_455  S
O553       C1586   1.275       .  A
O553       Co816   1.898       .  S
O554        C567   1.306       .  A
O554       Co562   2.111       .  S
O555        C568   1.262       .  A
O555       Co563   2.006       .  S
O556        C568   1.262       .  A
O556       Co561   1.982       .  S
O557        C567   1.258       .  A
O557       Co560   1.853       .  S
O558        C565   1.269       .  A
O558       Co563   2.023       .  S
O559        C566   1.298       .  A
O559       Co562   2.074       .  S
Co560       O800   1.997   1_554  S
Co560      O1572   1.985       .  S
Co560      O1839   1.910   1_554  S
Co561      O1564   1.959   1_455  S
Co561       O808   1.901       .  S
Co561       O564   1.935   1_455  S
Co562      O1839   2.262   1_554  S
Co563       O564   2.103   1_455  S
O564      Co1835   1.916       .  S
O564      Co1837   2.260       .  S
C565        O807   1.263       .  A
C565        C644   1.501       .  S
C566       O1573   1.275       .  A
C566        C739   1.478       .  S
C567        C753   1.484       .  S
C568        C627   1.483       .  S
O569        C577   1.276       .  A
O569       Co589   2.036   1_554  S
O570        C578   1.302       .  A
O570       Co590   2.119   1_565  S
O571        C579   1.254       .  A
O571       Co591   1.964       .  S
O572        C580   1.272       .  A
O572       Co592   1.991       .  S
O573       Co845   2.005   1_554  S
O574        C835   1.280       .  A
O575        C578   1.268       .  A
O575       Co592   1.895       .  S
O576        C577   1.256       .  A
O576       Co591   1.954       .  S
C577        C700   1.469       .  S
C578        C630   1.495       .  S
C579        C686   1.484       .  S
C580        O829   1.280       .  A
C580        C602   1.506       .  S
O581       Co844   1.966       .  S
O582        C850   1.271       .  A
O583        C596   1.276       .  A
O583       Co591   2.039       .  S
O584        C597   1.299       .  A
O584       Co592   2.128       .  S
O585        C597   1.264   1_545  A
O585       Co590   1.878       .  S
O586        C596   1.255   1_556  A
O586       Co589   1.954       .  S
O587        C594   1.266       .  A
O587       Co592   2.017       .  S
O588        C595   1.279       .  A
O588       Co591   2.034       .  S
Co589       O836   1.970       .  S
Co589       O848   2.014       .  S
Co590       O828   2.002       .  S
Co591       O848   2.031   1_554  S
O593       Co844   2.010       .  S
O593       Co846   2.035       .  S
C594        C658   1.479       .  S
C595        O837   1.272   1_554  A
C595        C641   1.499       .  S
C596        C616   1.494       .  S
C597        C669   1.487       .  S
C598        C854   1.406       .  A
C598        C603   1.422       .  A
C598        H605   1.083       .  S
C599        C853   1.405       .  A
C599        C600   1.412       .  A
C600        C601   1.407       .  A
C600        N607   1.438       .  S
C601        C857   1.405       .  A
C601        H606   1.084       .  S
C602        C856   1.405       .  A
C602        C603   1.421       .  A
C603        N604   1.437       .  S
N604        H608   1.045       .  S
N604        H609   1.046       .  S
N607        H610   1.046       .  S
N607        H611   1.045       .  S
C612        C613   1.401   1_556  A
C612        C617   1.407       .  A
C612        H619   1.084       .  S
C613        C614   1.418       .  A
C614        C615   1.406       .  A
C614        N621   1.439       .  S
C615        C616   1.403       .  A
C615        H620   1.083       .  S
C616        C617   1.422   1_554  A
C617        N618   1.438       .  S
N618        H622   1.046       .  S
N618        H623   1.046       .  S
N621        H624   1.047       .  S
N621        H625   1.045       .  S
C626        C627   1.403       .  A
C626        C631   1.404       .  A
C626        H633   1.078       .  S
C627        C628   1.415       .  A
C628        C629   1.410       .  A
C628        N635   1.439       .  S
C629        C630   1.411       .  A
C629        H634   1.083       .  S
C630        C631   1.413       .  A
C631        N887   1.438       .  S
N632        C886   1.438       .  S
N632        H891   1.046       .  S
N632        H892   1.046   1_554  S
N635        H638   1.044       .  S
N635        H639   1.045       .  S
H636        N887   1.046       .  S
H637        N887   1.046       .  S
C640        C896   1.408       .  A
C640        C645   1.407       .  A
C640        H647   1.084       .  S
C641        C895   1.410       .  A
C641        C642   1.414   1_554  A
C642        C643   1.411       .  A
C642        N649   1.438       .  S
C643        C899   1.409       .  A
C643        H648   1.083       .  S
C644        C898   1.411       .  A
C644        C645   1.413       .  A
C645        N646   1.432       .  S
N646        H650   1.045       .  S
N646        H651   1.046       .  S
N649        H652   1.046       .  S
N649        H653   1.045       .  S
C654        C655   1.404       .  A
C654        H661   1.084       .  S
C655        C656   1.419       .  A
C656        N663   1.433       .  S
C657        C658   1.399       .  A
C657        H662   1.084       .  S
C658        C659   1.411   1_565  A
C659        N660   1.433       .  S
N660        H665   1.045       .  S
N663        H666   1.046       .  S
C668        C669   1.404   1_545  A
C668        C673   1.397       .  A
C668        H675   1.084       .  S
C669        C670   1.411       .  A
C670        C671   1.411       .  A
C671        C672   1.412       .  A
C671        H676   1.083       .  S
C672        C673   1.420   1_565  A
C673        N674   1.432       .  S
N674        H678   1.045       .  S
N674        H679   1.045       .  S
N677        H680   1.045       .  S
N677        H681   1.046       .  S
C682        C687   1.401       .  A
C682        H689   1.082       .  S
C683        C684   1.405       .  A
C684        C685   1.406       .  A
C684        N691   1.437   1_545  S
C685        H690   1.083   1_545  S
C686        C687   1.414       .  A
C687        N688   1.438       .  S
N688        H692   1.046       .  S
N688        H693   1.045       .  S
N691        H694   1.046   1_565  S
N691        H695   1.045       .  S
C696        C697   1.407       .  A
C696        C701   1.395       .  A
C696        H703   1.084       .  S
C697        C698   1.413       .  A
C699        H704   1.084       .  S
C700        C701   1.402       .  A
C701        N702   1.431       .  S
N702        H706   1.045       .  S
N702        H707   1.045       .  S
N705        H708   1.046       .  S
N705        H709   1.045       .  S
C710        C711   1.406       .  A
C710        C715   1.397       .  A
C710        H717   1.084       .  S
C711       C1732   1.416       .  A
C712       C1731   1.416       .  A
C712        C713   1.403       .  A
C712        N719   1.439       .  S
C713        C714   1.401       .  A
C713        H718   1.084       .  S
C714       C1735   1.412   1_655  A
C715       C1734   1.414       .  A
C715        N716   1.433       .  S
N716        H720   1.046       .  S
N716        H721   1.044       .  S
N719        H722   1.046       .  S
N719        H723   1.045       .  S
C724       C1745   1.413       .  A
C724        C729   1.396       .  A
C724        H731   1.083       .  S
C725       C1744   1.413       .  A
C725        C726   1.413       .  A
C726        C727   1.400       .  A
C726        N733   1.438       .  S
C727        C728   1.405       .  A
C727        H732   1.084       .  S
C728       C1749   1.406       .  A
C729       C1748   1.404       .  A
C729        N730   1.432       .  S
N730        H734   1.045       .  S
N730        H735   1.045       .  S
N733        H736   1.045       .  S
N733        H737   1.045       .  S
C738        C739   1.404       .  A
C738        C743   1.407       .  A
C738        H745   1.084       .  S
C739       C1760   1.408       .  A
C740       C1759   1.410       .  A
C740        C741   1.406       .  A
C740        N747   1.434       .  S
C741        C742   1.404       .  A
C741        H746   1.084       .  S
C742       C1763   1.409   1_455  A
C743       C1762   1.411       .  A
C743        N744   1.438       .  S
N744        H748   1.045       .  S
N744        H749   1.045       .  S
N747        H750   1.046       .  S
N747        H751   1.046       .  S
C752       C1773   1.400   1_455  A
C752        C757   1.407       .  A
C752        H759   1.083       .  S
C753       C1772   1.400       .  A
C753        C754   1.421       .  A
C754        C755   1.399       .  A
C754        N761   1.440       .  S
C755        C756   1.400       .  A
C755        H760   1.083       .  S
C756       C1777   1.421       .  A
C757       C1776   1.421   1_455  A
C757        N758   1.438       .  S
N758        H762   1.045       .  S
N758        H763   1.046       .  S
N761        H764   1.046       .  S
N761        H765   1.046       .  S
O766        C774   1.282       .  A
O766       Co786   2.034       .  S
O767        C775   1.299   1_545  A
O767       Co787   2.105   1_445  S
O768        C776   1.253       .  A
O768       Co788   1.975       .  S
O769        C777   1.271       .  A
O769       Co789   1.983   1_545  S
O770       C1796   1.252       .  A
O771      Co1806   1.988   1_455  S
O772        C775   1.272       .  A
O772       Co789   1.889       .  S
O773        C774   1.264       .  A
O773       Co788   1.954       .  S
C774       C1011   1.487       .  S
C775        C927   1.492       .  S
C776       O1790   1.252       .  A
C776        C966   1.484       .  S
C777        C938   1.468       .  S
O778       C1811   1.258       .  A
O779      Co1807   1.955       .  S
O780        C793   1.267       .  A
O780       Co788   2.006       .  S
O781        C794   1.299       .  A
O781       Co789   2.130       .  S
O782        C794   1.253   1_655  A
O782       Co787   1.863       .  S
O783        C793   1.256       .  A
O783       Co786   1.958       .  S
O784        C791   1.269       .  A
O784       Co789   2.024       .  S
O785        C792   1.284       .  A
O785       Co788   2.038       .  S
Co786      O1791   1.989       .  S
Co786      O1810   2.013       .  S
Co787      O1799   1.954       .  S
Co788      O1810   2.043       .  S
O790      Co1806   2.008       .  S
O790      Co1808   2.046       .  S
C791       O1798   1.258   1_455  A
C791        C997   1.482       .  S
C792        C910   1.489       .  S
C793        C952   1.487       .  S
C794        C983   1.475       .  S
O795        C803   1.251       .  A
O795       Co815   1.979       .  S
O796        C804   1.278       .  A
O796       Co816   2.024   1_556  S
O797        C805   1.259       .  A
O797       Co817   2.038       .  S
O798        C806   1.257       .  A
O798       Co818   1.973   1_655  S
O799      Co1836   1.958       .  S
O800       C1826   1.262       .  A
O801        C804   1.263       .  A
O801       Co818   1.959       .  S
O802        C803   1.252       .  A
O802       Co817   1.989       .  S
C803        C868   1.491       .  S
C804        C980   1.485       .  S
C805        C854   1.499       .  S
C806       O1820   1.262   1_655  A
C806        C969   1.476       .  S
O807      Co1835   1.990   1_455  S
O808       C1841   1.275       .  A
O809        C822   1.306       .  A
O809       Co817   2.113       .  S
O810        C823   1.262       .  A
O810       Co818   2.006       .  S
O811        C823   1.261   1_554  A
O811       Co816   1.982       .  S
O812        C822   1.259       .  A
O812       Co815   1.852       .  S
O813        C820   1.270       .  A
O813       Co818   2.022       .  S
O814        C821   1.298       .  A
O814       Co817   2.078       .  S
Co815      O1827   1.987       .  S
Co815      O1584   1.916       .  S
Co816      O1819   1.956   1_455  S
Co816       O819   1.931   1_454  S
Co817      O1584   2.261       .  S
Co818       O819   2.099   1_455  S
O819      Co1580   1.909   1_556  S
O819      Co1582   2.260   1_556  S
C820        C899   1.500       .  S
C821       O1828   1.275       .  A
C821        C994   1.484       .  S
C822       C1008   1.484       .  S
C823        C882   1.481       .  S
O824        C832   1.276       .  A
O824       Co844   2.039       .  S
O825        C833   1.301       .  A
O825       Co845   2.118   1_565  S
O826        C834   1.254       .  A
O826       Co846   1.964       .  S
O827        C835   1.271   1_554  A
O827       Co847   1.987   1_554  S
O830        C833   1.267       .  A
O830       Co847   1.894       .  S
O831        C832   1.256       .  A
O831       Co846   1.953       .  S
C832        C955   1.469       .  S
C833        C885   1.493       .  S
C834        C941   1.485       .  S
C835        C857   1.501   1_556  S
O838        C851   1.276       .  A
O838       Co846   2.042       .  S
O839        C852   1.298       .  A
O839       Co847   2.119       .  S
O840        C852   1.265   1_545  A
O840       Co845   1.878       .  S
O841        C851   1.253       .  A
O841       Co844   1.952       .  S
O842        C849   1.265       .  A
O842       Co847   2.019       .  S
O843        C850   1.279       .  A
O843       Co846   2.031       .  S
C849        C913   1.481       .  S
C850        C896   1.498       .  S
C851        C871   1.496       .  S
C852        C924   1.481       .  S
C853        C858   1.419       .  A
C853        H860   1.083       .  S
C854        C855   1.416       .  A
C855        C856   1.405       .  A
C855        N862   1.438       .  S
C856        H861   1.083       .  S
C857        C858   1.420       .  A
C858        N859   1.437       .  S
N859        H863   1.046       .  S
N859        H864   1.045   1_554  S
N862        H865   1.045       .  S
N862        H866   1.046       .  S
C867        C868   1.401       .  A
C867        C872   1.408       .  A
C867        H874   1.084       .  S
C868        C869   1.420       .  A
C869        C870   1.408       .  A
C869        N876   1.438       .  S
C870        C871   1.402       .  A
C870        H875   1.083       .  S
C871        C872   1.423       .  A
C872        N873   1.439       .  S
N873        H877   1.046       .  S
N873        H878   1.046       .  S
N876        H879   1.046       .  S
N876        H880   1.045       .  S
C881        C882   1.402   1_554  A
C881        C886   1.403       .  A
C881        H888   1.078       .  S
C882        C883   1.415       .  A
C883        C884   1.410       .  A
C883        N890   1.438       .  S
C884        C885   1.411       .  A
C884        H889   1.084       .  S
C885        C886   1.412   1_556  A
N890        H893   1.044       .  S
N890        H894   1.046       .  S
C895        C900   1.409       .  A
C895        H902   1.084       .  S
C896        C897   1.414       .  A
C897        C898   1.413       .  A
C897        N904   1.438       .  S
C898        H903   1.083       .  S
C899        C900   1.413   1_556  A
C900        N901   1.433       .  S
N901        H905   1.046       .  S
N901        H906   1.046       .  S
N904        H907   1.046       .  S
N904        H908   1.046       .  S
C909        C910   1.405       .  A
C909        H916   1.084       .  S
C910        C911   1.420       .  A
C911        N918   1.433       .  S
C912        C913   1.400       .  A
C912        H917   1.084       .  S
C913        C914   1.411   1_565  A
C914        N915   1.433       .  S
N915        H920   1.045       .  S
N918        H921   1.045       .  S
C923        C924   1.403   1_545  A
C923        C928   1.396       .  A
C923        H930   1.085       .  S
C924        C925   1.410       .  A
C925        C926   1.408       .  A
C926        C927   1.411       .  A
C926        H931   1.083       .  S
C927        C928   1.420   1_565  A
C928        N929   1.432       .  S
N929        H933   1.044       .  S
N929        H934   1.045       .  S
N932        H935   1.046       .  S
N932        H936   1.045       .  S
C937        C942   1.401       .  A
C937        H944   1.083       .  S
C938        C939   1.405       .  A
C939        C940   1.405       .  A
C939        N946   1.438   1_545  S
C940        H945   1.083   1_545  S
C941        C942   1.414       .  A
C942        N943   1.438       .  S
N943        H947   1.046       .  S
N943        H948   1.045       .  S
N946        H949   1.045   1_565  S
N946        H950   1.046       .  S
C951        C952   1.409       .  A
C951        C956   1.397       .  A
C951        H958   1.084       .  S
C952        C953   1.414       .  A
C954        H959   1.084       .  S
C955        C956   1.403       .  A
C956        N957   1.432       .  S
N957        H961   1.045       .  S
N957        H962   1.046       .  S
N960        H963   1.046       .  S
N960        H964   1.045       .  S
C965        C966   1.405       .  A
C965        C970   1.396       .  A
C965        H972   1.084       .  S
C966       C1987   1.417       .  A
C967       C1986   1.417       .  A
C967        C968   1.402       .  A
C967        N974   1.439       .  S
C968        C969   1.402       .  A
C968        H973   1.084       .  S
C969       C1990   1.414       .  A
C970       C1989   1.415       .  A
C970        N971   1.433       .  S
N971        H975   1.045       .  S
N971        H976   1.045       .  S
N974        H977   1.046       .  S
N974        H978   1.046       .  S
C979       C2000   1.413       .  A
C979        C984   1.398       .  A
C979        H986   1.083       .  S
C980       C1999   1.414       .  A
C980        C981   1.411       .  A
C981        C982   1.400       .  A
C981        N988   1.438       .  S
C982        C983   1.407       .  A
C982        H987   1.084       .  S
C983       C2004   1.407       .  A
C984       C2003   1.406       .  A
C984        N985   1.433       .  S
N985        H989   1.046       .  S
N985        H990   1.045       .  S
N988        H991   1.045   1_455  S
N988        H992   1.046       .  S
C993        C994   1.403       .  A
C993        C998   1.408       .  A
C993       H1000   1.084       .  S
C994       C2015   1.410       .  A
C995       C2014   1.410       .  A
C995        C996   1.410       .  A
C995       N1002   1.435       .  S
C996        C997   1.406       .  A
C996       H1001   1.084       .  S
C997       C2018   1.411   1_455  A
C998       C2017   1.413       .  A
C998        N999   1.438       .  S
N999       H1003   1.045       .  S
N999       H1004   1.046       .  S
N1002      H1005   1.046       .  S
N1002      H1006   1.045       .  S
C1007      C2028   1.401   1_455  A
C1007      C1012   1.407       .  A
C1007      H1014   1.083       .  S
C1008      C2027   1.401       .  A
C1008      C1009   1.420       .  A
C1009      C1010   1.398       .  A
C1009      N1016   1.440       .  S
C1010      C1011   1.400       .  A
C1010      H1015   1.083       .  S
C1011      C2032   1.420       .  A
C1012      C2031   1.420   1_455  A
C1012      N1013   1.438       .  S
N1013      H1017   1.046       .  S
N1013      H1018   1.046       .  S
N1016      H1019   1.046       .  S
N1016      H1020   1.046       .  S
O1021      C1029   1.283       .  A
O1021     Co1041   2.036   1_545  S
O1022      C1030   1.300       .  A
O1022     Co1042   2.113       .  S
O1023      C1031   1.253       .  A
O1023     Co1043   1.973       .  S
O1024      C1032   1.271       .  A
O1024     Co1044   1.982       .  S
O1025     Co1552   1.991   1_545  S
O1026      C1542   1.270       .  A
O1027      C1030   1.272       .  A
O1027     Co1044   1.897       .  S
O1028      C1029   1.264       .  A
O1028     Co1043   1.956       .  S
C1029      C1266   1.488       .  S
C1030      C1182   1.499       .  S
C1031      C1221   1.480       .  S
C1032      O1536   1.269       .  A
C1032      C1193   1.466       .  S
O1033     Co1551   1.971       .  S
O1034      C1557   1.265       .  A
O1035      C1048   1.267       .  A
O1035     Co1043   2.009       .  S
O1036      C1049   1.299       .  A
O1036     Co1044   2.127       .  S
O1037      C1049   1.254       .  A
O1037     Co1042   1.862       .  S
O1038      C1048   1.254   1_565  A
O1038     Co1041   1.957       .  S
O1039      C1046   1.268       .  A
O1039     Co1044   2.018       .  S
O1040      C1047   1.284   1_545  A
O1040     Co1043   2.040       .  S
Co1041     O1543   1.971       .  S
Co1042     O1535   1.989       .  S
Co1042     O1555   1.972       .  S
Co1044     O1555   2.025       .  S
O1045     Co1552   1.976   1_545  S
O1045     Co1554   2.026   1_545  S
C1046      C1252   1.477       .  S
C1047      O1544   1.266       .  A
C1047      C1165   1.491       .  S
C1048      C1207   1.481       .  S
C1049      C1238   1.465       .  S
O1050      C1058   1.249   1_556  A
O1050     Co1070   1.976   1_556  S
O1051      C1059   1.277       .  A
O1051     Co1071   2.023       .  S
O1052      C1060   1.258       .  A
O1052     Co1072   2.032       .  S
O1053      C1061   1.258       .  A
O1053     Co1073   1.974       .  S
O1054      C1315   1.242       .  A
O1055     Co1325   1.990   1_455  S
O1056      C1059   1.263       .  A
O1056     Co1073   1.956       .  S
O1057      C1058   1.252       .  A
O1057     Co1072   1.991       .  S
C1058      C1123   1.489       .  S
C1059      C1235   1.483       .  S
C1060      O1309   1.242       .  A
C1060      C1109   1.492       .  S
C1061      C1224   1.469       .  S
O1062      C1330   1.263   1_554  A
O1063     Co1326   1.894       .  S
O1064      C1077   1.306       .  A
O1064     Co1072   2.113       .  S
O1065      C1078   1.262       .  A
O1065     Co1073   2.008       .  S
O1066      C1078   1.259       .  A
O1066     Co1071   1.981       .  S
O1067      C1077   1.258       .  A
O1067     Co1070   1.851       .  S
O1068      C1075   1.269       .  A
O1068     Co1073   2.018       .  S
O1069      C1076   1.297       .  A
O1069     Co1072   2.074   1_455  S
Co1070     O1310   1.991   1_654  S
Co1071     O1318   1.902       .  S
Co1071     O1074   1.928       .  S
Co1073     O1074   2.103       .  S
C1075      O1317   1.261       .  A
C1075      C1154   1.496       .  S
C1076      C1249   1.479       .  S
C1077      C1263   1.485       .  S
C1078      C1137   1.482       .  S
O1079      C1087   1.276       .  A
O1079     Co1099   2.036   1_554  S
O1080      C1088   1.302       .  A
O1080     Co1100   2.123       .  S
O1081      C1089   1.255   1_565  A
O1081     Co1101   1.967   1_565  S
O1082      C1090   1.272       .  A
O1082     Co1102   1.988       .  S
O1083      C1599   1.260       .  A
O1083     Co1355   2.000   1_554  S
O1084      C1345   1.280       .  A
O1084     Co1609   2.027       .  S
O1085      C1088   1.267       .  A
O1085     Co1102   1.889       .  S
O1086      C1087   1.257       .  A
O1086     Co1101   1.953       .  S
C1087      C1210   1.475       .  S
C1088      C1140   1.492       .  S
C1089      O1593   1.262       .  A
C1089      C1196   1.486       .  S
C1090      O1339   1.281       .  A
C1090      C1112   1.501       .  S
O1091      C1614   1.255   1_545  A
O1091     Co1354   1.971       .  S
O1092      C1360   1.271       .  A
O1092     Co1610   1.981       .  S
O1093      C1106   1.275       .  A
O1093     Co1101   2.034       .  S
O1094      C1107   1.299       .  A
O1094     Co1102   2.129       .  S
O1095      C1107   1.265       .  A
O1095     Co1100   1.881       .  S
O1096      C1106   1.256   1_556  A
O1096     Co1099   1.959       .  S
O1097      C1104   1.265       .  A
O1097     Co1102   2.015       .  S
O1098      C1105   1.278       .  A
O1098     Co1101   2.031       .  S
Co1099     O1594   2.031   1_545  S
Co1099     O1346   1.971       .  S
Co1099     O1358   2.019       .  S
Co1100     O1338   2.003       .  S
Co1100     O1602   1.981       .  S
Co1100     O1613   1.990       .  S
Co1101     O1358   2.037   1_554  S
Co1102     O1613   2.013       .  S
O1103     Co1354   2.015       .  S
O1103     Co1610   1.993       .  S
O1103     Co1356   2.036       .  S
O1103     Co1612   2.016   1_545  S
C1104      O1601   1.254       .  A
C1104      C1168   1.477       .  S
C1105      O1347   1.271   1_554  A
C1105      C1151   1.497       .  S
C1106      C1126   1.496       .  S
C1107      C1179   1.491       .  S
C1108      C1364   1.406       .  A
C1108      C1113   1.420       .  A
C1108      H1115   1.083       .  S
C1109      C1363   1.405       .  A
C1109      C1110   1.413       .  A
C1110      C1111   1.406       .  A
C1110      N1117   1.438       .  S
C1111      C1367   1.405       .  A
C1111      H1116   1.084       .  S
C1112      C1366   1.405       .  A
C1112      C1113   1.420       .  A
C1113      N1114   1.437       .  S
N1114      H1118   1.046       .  S
N1114      H1119   1.045       .  S
N1117      H1120   1.045       .  S
N1117      H1121   1.046       .  S
C1122      C1123   1.402   1_556  A
C1122      C1127   1.408       .  A
C1122      H1129   1.084       .  S
C1123      C1124   1.418       .  A
C1124      C1125   1.407       .  A
C1124      N1131   1.439       .  S
C1125      C1126   1.404       .  A
C1125      H1130   1.083       .  S
C1126      C1127   1.420   1_554  A
C1127      N1128   1.438       .  S
N1128      H1132   1.046       .  S
N1128      H1133   1.046       .  S
N1131      H1134   1.046       .  S
N1131      H1135   1.046       .  S
C1136      C1137   1.404       .  A
C1136      C1141   1.405       .  A
C1136      H1143   1.079       .  S
C1137      C1138   1.413       .  A
C1138      C1139   1.409       .  A
C1138      N1145   1.438       .  S
C1139      C1140   1.411       .  A
C1139      H1144   1.083       .  S
C1140      C1141   1.412       .  A
C1141      N1397   1.439       .  S
N1142      C1396   1.438       .  S
N1142      H1401   1.045       .  S
N1142      H1402   1.046   1_554  S
N1145      H1148   1.044       .  S
N1145      H1149   1.046       .  S
H1146      N1397   1.046       .  S
H1147      N1397   1.046       .  S
C1150      C1406   1.407       .  A
C1150      C1155   1.405       .  A
C1150      H1157   1.084       .  S
C1151      C1405   1.409       .  A
C1151      C1152   1.413   1_554  A
C1152      C1153   1.412       .  A
C1152      N1159   1.438       .  S
C1153      C1409   1.411       .  A
C1153      H1158   1.083       .  S
C1154      C1408   1.410       .  A
C1154      C1155   1.413       .  A
C1155      N1156   1.432       .  S
N1156      H1160   1.045       .  S
N1156      H1161   1.046       .  S
N1159      H1162   1.046       .  S
N1159      H1163   1.046       .  S
C1164      C1165   1.405   1_545  A
C1164      C1679   1.403       .  A
C1164      H1171   1.084       .  S
C1165      C1166   1.418       .  A
C1166      C1677   1.405       .  A
C1166      N1173   1.433       .  S
C1167      C1676   1.403       .  A
C1167      C1168   1.399       .  A
C1167      H1172   1.084       .  S
C1168      C1169   1.411       .  A
C1169      C1674   1.402       .  A
C1169      N1170   1.433       .  S
N1170      H1684   1.046       .  S
N1170      H1175   1.045       .  S
N1173      H1176   1.046       .  S
N1173      H1687   1.045       .  S
H1174      N1680   1.046       .  S
H1177      N1683   1.046       .  S
C1178      C1179   1.404       .  A
C1178      C1183   1.397       .  A
C1178      H1185   1.084       .  S
C1179      C1180   1.413       .  A
C1180      C1181   1.413       .  A
C1180      N1697   1.438       .  S
C1181      C1182   1.412       .  A
C1181      H1186   1.083       .  S
C1182      C1183   1.420       .  A
C1183      N1184   1.431       .  S
N1184      H1188   1.044       .  S
N1184      H1189   1.045       .  S
N1187      C1690   1.438       .  S
N1187      H1190   1.046       .  S
N1187      H1191   1.045       .  S
C1192      C1703   1.404       .  A
C1192      C1197   1.399       .  A
C1192      H1199   1.083       .  S
C1193      C1702   1.403       .  A
C1193      C1194   1.404       .  A
C1194      C1195   1.403       .  A
C1194      N1201   1.438       .  S
C1195      C1706   1.410       .  A
C1195      H1200   1.083       .  S
C1196      C1705   1.412       .  A
C1196      C1197   1.413       .  A
C1197      N1198   1.438       .  S
N1198      H1202   1.046       .  S
N1198      H1203   1.042   1_545  S
N1201      H1204   1.045       .  S
N1201      H1205   1.046       .  S
C1206      C1207   1.407       .  A
C1206      C1211   1.401       .  A
C1206      H1213   1.083       .  S
C1207      C1208   1.407   1_545  A
C1208      C1719   1.406       .  A
C1208      N1725   1.432       .  S
C1209      C1718   1.408       .  A
C1209      C1720   1.406       .  A
C1209      H1214   1.084       .  S
C1210      C1719   1.407   1_545  A
C1210      C1211   1.408       .  A
C1211      N1212   1.437       .  S
N1212      H1216   1.045       .  S
N1212      H1217   1.043       .  S
N1215      C1718   1.432       .  S
N1215      H1218   1.046       .  S
N1215      H1219   1.046       .  S
C1220      C1221   1.405       .  A
C1220      C1225   1.394   1_655  A
C1220      H1227   1.084   1_655  S
C1222      C1223   1.402       .  A
C1222      N1229   1.438       .  S
C1223      C1224   1.401       .  A
C1223      H1228   1.084       .  S
C1225      N1226   1.433       .  S
N1226      H1230   1.046       .  S
N1226      H1231   1.045       .  S
N1229      H1232   1.046       .  S
N1229      H1233   1.046       .  S
C1234      C1239   1.396       .  A
C1234      H1241   1.083       .  S
C1235      C1236   1.413       .  A
C1236      C1237   1.401       .  A
C1236      N1243   1.438       .  S
C1237      C1238   1.405       .  A
C1237      H1242   1.085       .  S
C1239      N1240   1.433       .  S
N1240      H1244   1.045   1_655  S
N1240      H1245   1.045       .  S
N1243      H1246   1.044       .  S
N1243      H1247   1.046       .  S
C1248      C1249   1.404   1_655  A
C1248      C1253   1.406       .  A
C1248      H1255   1.084       .  S
C1250      C1251   1.407       .  A
C1250      N1257   1.435       .  S
C1251      C1252   1.405       .  A
C1251      H1256   1.084       .  S
C1253      N1254   1.437       .  S
N1254      H1258   1.045       .  S
N1254      H1259   1.046       .  S
N1257      H1260   1.046       .  S
N1257      H1261   1.046       .  S
C1262      C1267   1.407       .  A
C1262      H1269   1.083       .  S
C1263      C1264   1.421       .  A
C1264      C1265   1.399       .  A
C1264      N1271   1.440       .  S
C1265      C1266   1.400       .  A
C1265      H1270   1.083       .  S
C1267      N1268   1.438       .  S
N1268      H1272   1.046       .  S
N1268      H1273   1.045       .  S
N1271      H1274   1.046       .  S
N1271      H1275   1.046       .  S
O1276      C1284   1.281       .  A
O1276     Co1296   2.032   1_545  S
O1277      C1285   1.300       .  A
O1277     Co1297   2.107       .  S
O1278      C1286   1.251       .  A
O1278     Co1298   1.974       .  S
O1279      C1287   1.270       .  A
O1279     Co1299   1.982       .  S
O1280     Co1807   1.990   1_545  S
O1281      C1797   1.270       .  A
O1282      C1285   1.271       .  A
O1282     Co1299   1.892       .  S
O1283      C1284   1.263       .  A
O1283     Co1298   1.952       .  S
C1284      C1521   1.485       .  S
C1285      C1437   1.495       .  S
C1286      C1476   1.480       .  S
C1287      O1791   1.269       .  A
C1287      C1448   1.467       .  S
O1288     Co1806   1.972       .  S
O1289      C1812   1.264       .  A
O1290      C1303   1.267       .  A
O1290     Co1298   2.005       .  S
O1291      C1304   1.298       .  A
O1291     Co1299   2.124       .  S
O1292      C1304   1.253       .  A
O1292     Co1297   1.864       .  S
O1293      C1303   1.255   1_565  A
O1293     Co1296   1.957       .  S
O1294      C1301   1.269       .  A
O1294     Co1299   2.022       .  S
O1295      C1302   1.284   1_545  A
O1295     Co1298   2.043       .  S
Co1296     O1798   1.968       .  S
Co1297     O1790   1.991       .  S
Co1297     O1810   1.976       .  S
Co1299     O1810   2.024       .  S
O1300     Co1807   1.973   1_545  S
O1300     Co1809   2.028   1_545  S
C1301      C1507   1.480       .  S
C1302      O1799   1.263       .  A
C1302      C1420   1.490       .  S
C1303      C1462   1.484       .  S
C1304      C1493   1.469       .  S
O1305      C1313   1.249       .  A
O1305     Co1325   1.975       .  S
O1306      C1314   1.275       .  A
O1306     Co1326   2.017   1_556  S
O1307      C1315   1.258       .  A
O1307     Co1327   2.032       .  S
O1308      C1316   1.257       .  A
O1308     Co1328   1.972       .  S
O1311      C1314   1.264       .  A
O1311     Co1328   1.960       .  S
O1312      C1313   1.251       .  A
O1312     Co1327   1.987       .  S
C1313      C1378   1.485       .  S
C1314      C1490   1.482       .  S
C1315      C1364   1.494       .  S
C1316      C1479   1.468       .  S
O1319      C1332   1.304       .  A
O1319     Co1327   2.104       .  S
O1320      C1333   1.261       .  A
O1320     Co1328   2.005       .  S
O1321      C1333   1.262   1_554  A
O1321     Co1326   1.986       .  S
O1322      C1332   1.258       .  A
O1322     Co1325   1.853       .  S
O1323      C1330   1.270       .  A
O1323     Co1328   2.020       .  S
O1324      C1331   1.296       .  A
O1324     Co1327   2.071   1_455  S
Co1326     O1329   1.935   1_554  S
Co1328     O1329   2.101       .  S
C1330      C1409   1.501       .  S
C1331      C1504   1.479       .  S
C1332      C1518   1.482       .  S
C1333      C1392   1.485       .  S
O1334      C1342   1.277       .  A
O1334     Co1354   2.041       .  S
O1335      C1343   1.301       .  A
O1335     Co1355   2.119       .  S
O1336      C1344   1.254       .  A
O1336     Co1356   1.963       .  S
O1337      C1345   1.271   1_554  A
O1337     Co1357   1.986   1_554  S
O1338      C1854   1.262       .  A
O1339     Co1864   2.030       .  S
O1340      C1343   1.268       .  A
O1340     Co1357   1.895       .  S
O1341      C1342   1.256       .  A
O1341     Co1356   1.953       .  S
C1342      C1465   1.472       .  S
C1343      C1395   1.495       .  S
C1344      O1848   1.261       .  A
C1344      C1451   1.483       .  S
C1345      C1367   1.498   1_556  S
O1346      C1869   1.255   1_545  A
O1347     Co1865   1.984       .  S
O1348      C1361   1.275       .  A
O1348     Co1356   2.037       .  S
O1349      C1362   1.299       .  A
O1349     Co1357   2.128       .  S
O1350      C1362   1.264       .  A
O1350     Co1355   1.878       .  S
O1351      C1361   1.255       .  A
O1351     Co1354   1.956       .  S
O1352      C1359   1.265       .  A
O1352     Co1357   2.014       .  S
O1353      C1360   1.278       .  A
O1353     Co1356   2.028       .  S
Co1354     O1849   2.028   1_545  S
Co1355     O1857   1.982       .  S
Co1355     O1868   1.991   1_556  S
Co1357     O1868   2.014   1_556  S
O1358     Co1865   1.993       .  S
O1358     Co1867   2.019   1_545  S
C1359      O1856   1.254       .  A
C1359      C1423   1.477       .  S
C1360      C1406   1.493       .  S
C1361      C1381   1.494       .  S
C1362      C1434   1.487       .  S
C1363      C1368   1.419       .  A
C1363      H1370   1.083       .  S
C1364      C1365   1.413       .  A
C1365      C1366   1.405       .  A
C1365      N1372   1.438       .  S
C1366      H1371   1.084       .  S
C1367      C1368   1.419       .  A
C1368      N1369   1.437       .  S
N1369      H1373   1.045       .  S
N1369      H1374   1.046   1_554  S
N1372      H1375   1.046       .  S
N1372      H1376   1.046       .  S
C1377      C1378   1.401       .  A
C1377      C1382   1.408       .  A
C1377      H1384   1.084       .  S
C1378      C1379   1.414       .  A
C1379      C1380   1.403       .  A
C1379      N1386   1.433       .  S
C1380      C1381   1.403       .  A
C1380      H1385   1.083       .  S
C1381      C1382   1.422       .  A
C1382      N1383   1.438       .  S
N1383      H1387   1.046       .  S
N1383      H1388   1.046       .  S
N1386      H1389   1.046       .  S
N1386      H1390   1.045       .  S
C1391      C1392   1.403   1_554  A
C1391      C1396   1.405       .  A
C1391      H1398   1.078       .  S
C1392      C1393   1.416       .  A
C1393      C1394   1.410       .  A
C1393      N1400   1.438       .  S
C1394      C1395   1.411       .  A
C1394      H1399   1.084       .  S
C1395      C1396   1.413   1_556  A
N1400      H1403   1.044       .  S
N1400      H1404   1.045       .  S
C1405      C1410   1.408       .  A
C1405      H1412   1.084       .  S
C1406      C1407   1.413       .  A
C1407      C1408   1.411       .  A
C1407      N1414   1.438       .  S
C1408      H1413   1.083       .  S
C1409      C1410   1.413   1_556  A
C1410      N1411   1.432       .  S
N1411      H1415   1.045       .  S
N1411      H1416   1.046       .  S
N1414      H1417   1.045       .  S
N1414      H1418   1.046       .  S
C1419      C1420   1.403   1_545  A
C1419      C1934   1.403       .  A
C1419      H1426   1.083       .  S
C1420      C1421   1.420       .  A
C1421      C1932   1.406       .  A
C1421      N1428   1.433       .  S
C1422      C1931   1.404       .  A
C1422      C1423   1.399       .  A
C1422      H1427   1.084       .  S
C1423      C1424   1.411       .  A
C1424      C1929   1.401       .  A
C1424      N1425   1.433       .  S
N1425      H1939   1.045       .  S
N1425      H1430   1.046       .  S
N1428      H1431   1.046       .  S
N1428      H1942   1.045       .  S
H1429      N1935   1.046       .  S
H1432      N1938   1.046       .  S
C1433      C1434   1.404       .  A
C1433      C1438   1.397       .  A
C1433      H1440   1.084       .  S
C1434      C1435   1.411       .  A
C1435      C1436   1.411       .  A
C1435      N1952   1.438       .  S
C1436      C1437   1.412       .  A
C1436      H1441   1.083       .  S
C1437      C1438   1.420       .  A
C1438      N1439   1.432       .  S
N1439      H1443   1.045       .  S
N1439      H1444   1.045       .  S
N1442      C1945   1.437       .  S
N1442      H1445   1.046       .  S
N1442      H1446   1.045       .  S
C1447      C1958   1.404       .  A
C1447      C1452   1.399       .  A
C1447      H1454   1.083       .  S
C1448      C1957   1.402       .  A
C1448      C1449   1.404       .  A
C1449      C1450   1.404       .  A
C1449      N1456   1.438       .  S
C1450      C1961   1.411       .  A
C1450      H1455   1.083       .  S
C1451      C1960   1.411       .  A
C1451      C1452   1.413       .  A
C1452      N1453   1.439       .  S
N1453      H1457   1.046       .  S
N1453      H1458   1.044   1_545  S
N1456      H1459   1.045       .  S
N1456      H1460   1.046       .  S
C1461      C1462   1.408       .  A
C1461      C1466   1.397       .  A
C1461      H1468   1.084       .  S
C1462      C1463   1.412   1_545  A
C1463      C1974   1.408       .  A
C1463      N1980   1.432       .  S
C1464      C1973   1.407       .  A
C1464      C1975   1.404       .  A
C1464      H1469   1.084       .  S
C1465      C1974   1.406   1_545  A
C1465      C1466   1.403       .  A
C1466      N1467   1.431       .  S
N1467      H1471   1.045       .  S
N1467      H1472   1.045       .  S
N1470      C1973   1.432       .  S
N1470      H1473   1.046       .  S
N1470      H1474   1.045       .  S
C1475      C1476   1.406   1_455  A
C1475      C1480   1.396       .  A
C1475      H1482   1.084       .  S
C1477      C1478   1.401       .  A
C1477      N1484   1.438       .  S
C1478      C1479   1.401       .  A
C1478      H1483   1.084       .  S
C1480      N1481   1.433       .  S
N1481      H1485   1.046       .  S
N1481      H1486   1.044       .  S
N1484      H1487   1.046       .  S
N1484      H1488   1.046       .  S
C1489      C1494   1.397       .  A
C1489      H1496   1.083   1_455  S
C1490      C1491   1.413       .  A
C1491      C1492   1.400       .  A
C1491      N1498   1.438       .  S
C1492      C1493   1.406       .  A
C1492      H1497   1.085       .  S
C1494      N1495   1.432   1_455  S
N1495      H1499   1.045   1_655  S
N1495      H1500   1.045       .  S
N1498      H1501   1.044       .  S
N1498      H1502   1.047       .  S
C1503      C1504   1.403   1_655  A
C1503      C1508   1.406       .  A
C1503      H1510   1.084       .  S
C1505      C1506   1.407       .  A
C1505      N1512   1.434       .  S
C1506      C1507   1.404       .  A
C1506      H1511   1.084       .  S
C1508      N1509   1.437       .  S
N1509      H1513   1.045       .  S
N1509      H1514   1.046       .  S
N1512      H1515   1.046       .  S
N1512      H1516   1.045       .  S
C1517      C1522   1.407       .  A
C1517      H1524   1.083       .  S
C1518      C1519   1.420       .  A
C1519      C1520   1.398       .  A
C1519      N1526   1.440       .  S
C1520      C1521   1.401       .  A
C1520      H1525   1.083       .  S
C1522      N1523   1.438       .  S
N1523      H1527   1.046       .  S
N1523      H1528   1.046       .  S
N1526      H1529   1.046       .  S
N1526      H1530   1.046       .  S
O1531      C1539   1.283       .  A
O1531     Co1551   2.038       .  S
O1532      C1540   1.299   1_545  A
O1532     Co1552   2.108   1_545  S
O1533      C1541   1.252       .  A
O1533     Co1553   1.977       .  S
O1534      C1542   1.272   1_545  A
O1534     Co1554   1.987   1_545  S
O1537      C1540   1.273       .  A
O1537     Co1554   1.898       .  S
O1538      C1539   1.263       .  A
O1538     Co1553   1.949       .  S
C1539      C1776   1.487       .  S
C1540      C1692   1.498       .  S
C1541      C1731   1.479       .  S
C1542      C1703   1.476   1_565  S
O1545      C1558   1.266       .  A
O1545     Co1553   2.003       .  S
O1546      C1559   1.296       .  A
O1546     Co1554   2.120       .  S
O1547      C1559   1.255       .  A
O1547     Co1552   1.869       .  S
O1548      C1558   1.256       .  A
O1548     Co1551   1.961       .  S
O1549      C1556   1.270       .  A
O1549     Co1554   2.020       .  S
O1550      C1557   1.284       .  A
O1550     Co1553   2.041       .  S
C1556      C1762   1.479       .  S
C1557      C1675   1.489       .  S
C1558      C1717   1.484       .  S
C1559      C1748   1.463       .  S
O1560      C1568   1.251   1_556  A
O1560     Co1580   1.978   1_556  S
O1561      C1569   1.277       .  A
O1561     Co1581   2.021       .  S
O1562      C1570   1.259       .  A
O1562     Co1582   2.032       .  S
O1563      C1571   1.259       .  A
O1563     Co1583   1.979       .  S
O1564      C1825   1.242       .  A
O1565     Co1835   1.995   1_455  S
O1566      C1569   1.264       .  A
O1566     Co1583   1.956       .  S
O1567      C1568   1.251       .  A
O1567     Co1582   1.989       .  S
C1568      C1633   1.491       .  S
C1569      C1745   1.482       .  S
C1570      O1819   1.243       .  A
C1570      C1619   1.492       .  S
C1571      C1734   1.477       .  S
O1572      C1840   1.260   1_554  A
O1573     Co1836   1.898       .  S
O1574      C1587   1.307       .  A
O1574     Co1582   2.114       .  S
O1575      C1588   1.264       .  A
O1575     Co1583   2.013       .  S
O1576      C1588   1.262       .  A
O1576     Co1581   1.983       .  S
O1577      C1587   1.257       .  A
O1577     Co1580   1.849       .  S
O1578      C1585   1.268       .  A
O1578     Co1583   2.012       .  S
O1579      C1586   1.299       .  A
O1579     Co1582   2.079   1_455  S
Co1580     O1820   1.994   1_654  S
Co1581     O1828   1.905       .  S
Co1581     O1584   1.936       .  S
Co1583     O1584   2.101       .  S
C1585      O1827   1.263       .  A
C1585      C1664   1.494       .  S
C1586      C1759   1.481       .  S
C1587      C1773   1.485       .  S
C1588      C1647   1.488       .  S
O1589      C1597   1.276       .  A
O1589     Co1609   2.039   1_554  S
O1590      C1598   1.303       .  A
O1590     Co1610   2.124   1_565  S
O1591      C1599   1.253       .  A
O1591     Co1611   1.961       .  S
O1592      C1600   1.271       .  A
O1592     Co1612   1.986       .  S
O1593     Co1865   2.005   1_554  S
O1594      C1855   1.280       .  A
O1595      C1598   1.268       .  A
O1595     Co1612   1.894       .  S
O1596      C1597   1.254       .  A
O1596     Co1611   1.949       .  S
C1597      C1720   1.469       .  S
C1598      C1650   1.498       .  S
C1599      C1706   1.480       .  S
C1600      O1849   1.280       .  A
C1600      C1622   1.500       .  S
O1601     Co1864   1.968       .  S
O1602      C1870   1.271       .  A
O1603      C1616   1.276       .  A
O1603     Co1611   2.045       .  S
O1604      C1617   1.299       .  A
O1604     Co1612   2.125       .  S
O1605      C1617   1.264   1_545  A
O1605     Co1610   1.880       .  S
O1606      C1616   1.253   1_556  A
O1606     Co1609   1.951       .  S
O1607      C1614   1.266       .  A
O1607     Co1612   2.016       .  S
O1608      C1615   1.278       .  A
O1608     Co1611   2.026       .  S
Co1609     O1856   1.965       .  S
Co1609     O1868   2.009   1_556  S
Co1610     O1848   2.003       .  S
Co1611     O1868   2.030       .  S
O1613     Co1864   2.009       .  S
O1613     Co1866   2.031       .  S
C1614      C1678   1.482       .  S
C1615      O1857   1.271   1_554  A
C1615      C1661   1.492       .  S
C1616      C1636   1.496       .  S
C1617      C1689   1.487       .  S
C1618      C1874   1.405       .  A
C1618      C1623   1.419       .  A
C1618      H1625   1.083       .  S
C1619      C1873   1.405       .  A
C1619      C1620   1.413       .  A
C1620      C1621   1.407       .  A
C1620      N1627   1.438       .  S
C1621      C1877   1.405       .  A
C1621      H1626   1.084       .  S
C1622      C1876   1.405       .  A
C1622      C1623   1.420       .  A
C1623      N1624   1.437       .  S
N1624      H1628   1.045       .  S
N1624      H1629   1.046       .  S
N1627      H1630   1.046       .  S
N1627      H1631   1.046       .  S
C1632      C1633   1.401   1_556  A
C1632      C1637   1.406       .  A
C1632      H1639   1.084       .  S
C1633      C1634   1.419       .  A
C1634      C1635   1.409       .  A
C1634      N1641   1.438       .  S
C1635      C1636   1.403       .  A
C1635      H1640   1.083       .  S
C1636      C1637   1.423   1_554  A
C1637      N1638   1.439       .  S
N1638      H1642   1.046       .  S
N1638      H1643   1.046       .  S
N1641      H1644   1.046       .  S
N1641      H1645   1.045       .  S
C1646      C1647   1.404       .  A
C1646      C1651   1.403       .  A
C1646      H1653   1.078       .  S
C1647      C1648   1.417       .  A
C1648      C1649   1.412       .  A
C1648      N1655   1.438       .  S
C1649      C1650   1.412       .  A
C1649      H1654   1.083       .  S
C1650      C1651   1.410       .  A
C1651      N1907   1.432       .  S
N1652      C1906   1.436       .  S
N1652      H1911   1.046       .  S
N1652      H1912   1.046   1_554  S
N1655      H1658   1.044       .  S
N1655      H1659   1.046       .  S
H1656      N1907   1.044       .  S
H1657      N1907   1.045       .  S
C1660      C1916   1.408       .  A
C1660      C1665   1.404       .  A
C1660      H1667   1.084       .  S
C1661      C1915   1.407       .  A
C1661      C1662   1.412   1_554  A
C1662      C1663   1.411       .  A
C1662      N1669   1.437       .  S
C1663      C1919   1.410       .  A
C1663      H1668   1.083       .  S
C1664      C1918   1.410       .  A
C1664      C1665   1.412       .  A
C1665      N1666   1.433       .  S
N1666      H1670   1.045       .  S
N1666      H1671   1.046       .  S
N1669      H1672   1.046       .  S
N1669      H1673   1.046       .  S
C1674      C1675   1.404       .  A
C1674      H1681   1.084       .  S
C1675      C1676   1.420       .  A
C1676      N1683   1.433       .  S
C1677      C1678   1.401       .  A
C1677      H1682   1.084       .  S
C1678      C1679   1.412   1_565  A
C1679      N1680   1.433       .  S
N1680      H1685   1.045       .  S
N1683      H1686   1.046       .  S
C1688      C1689   1.403   1_545  A
C1688      C1693   1.397       .  A
C1688      H1695   1.084       .  S
C1689      C1690   1.412       .  A
C1690      C1691   1.412       .  A
C1691      C1692   1.412       .  A
C1691      H1696   1.083       .  S
C1692      C1693   1.421   1_565  A
C1693      N1694   1.432       .  S
N1694      H1698   1.045       .  S
N1694      H1699   1.045       .  S
N1697      H1700   1.046       .  S
N1697      H1701   1.046       .  S
C1702      C1707   1.399       .  A
C1702      H1709   1.083       .  S
C1703      C1704   1.407       .  A
C1704      C1705   1.408       .  A
C1704      N1711   1.437       .  S
C1705      H1710   1.083       .  S
C1706      C1707   1.413       .  A
C1707      N1708   1.439       .  S
N1708      H1712   1.046       .  S
N1708      H1713   1.045       .  S
N1711      H1714   1.046       .  S
N1711      H1715   1.045       .  S
C1716      C1717   1.409       .  A
C1716      C1721   1.397       .  A
C1716      H1723   1.084       .  S
C1717      C1718   1.411       .  A
C1719      H1724   1.084       .  S
C1720      C1721   1.403       .  A
C1721      N1722   1.432       .  S
N1722      H1726   1.045       .  S
N1722      H1727   1.046       .  S
N1725      H1728   1.046       .  S
N1725      H1729   1.045       .  S
C1730      C1731   1.404   1_455  A
C1730      C1735   1.396       .  A
C1730      H1737   1.084       .  S
C1732      C1733   1.403       .  A
C1732      N1739   1.439       .  S
C1733      C1734   1.403       .  A
C1733      H1738   1.084       .  S
C1735      N1736   1.433       .  S
N1736      H1740   1.046       .  S
N1736      H1741   1.045       .  S
N1739      H1742   1.046       .  S
N1739      H1743   1.046       .  S
C1744      C1749   1.398       .  A
C1744      H1751   1.083   1_455  S
C1745      C1746   1.414       .  A
C1746      C1747   1.400       .  A
C1746      N1753   1.438       .  S
C1747      C1748   1.403       .  A
C1747      H1752   1.085       .  S
C1749      N1750   1.432   1_455  S
N1750      H1754   1.045   1_655  S
N1750      H1755   1.046       .  S
N1753      H1756   1.044       .  S
N1753      H1757   1.045       .  S
C1758      C1759   1.405   1_655  A
C1758      C1763   1.407       .  A
C1758      H1765   1.084       .  S
C1760      C1761   1.407       .  A
C1760      N1767   1.435       .  S
C1761      C1762   1.405       .  A
C1761      H1766   1.084       .  S
C1763      N1764   1.437       .  S
N1764      H1768   1.045       .  S
N1764      H1769   1.045       .  S
N1767      H1770   1.046       .  S
N1767      H1771   1.046       .  S
C1772      C1777   1.408       .  A
C1772      H1779   1.083       .  S
C1773      C1774   1.423       .  A
C1774      C1775   1.399       .  A
C1774      N1781   1.440       .  S
C1775      C1776   1.400       .  A
C1775      H1780   1.083       .  S
C1777      N1778   1.438       .  S
N1778      H1782   1.046       .  S
N1778      H1783   1.045       .  S
N1781      H1784   1.046       .  S
N1781      H1785   1.046       .  S
O1786      C1794   1.282       .  A
O1786     Co1806   2.033       .  S
O1787      C1795   1.300   1_545  A
O1787     Co1807   2.109   1_545  S
O1788      C1796   1.252       .  A
O1788     Co1808   1.976       .  S
O1789      C1797   1.271   1_545  A
O1789     Co1809   1.985   1_545  S
O1792      C1795   1.273       .  A
O1792     Co1809   1.897       .  S
O1793      C1794   1.262       .  A
O1793     Co1808   1.948       .  S
C1794      C2031   1.484       .  S
C1795      C1947   1.499       .  S
C1796      C1986   1.483       .  S
C1797      C1958   1.472   1_565  S
O1800      C1813   1.266       .  A
O1800     Co1808   2.010       .  S
O1801      C1814   1.298       .  A
O1801     Co1809   2.125       .  S
O1802      C1814   1.254       .  A
O1802     Co1807   1.864       .  S
O1803      C1813   1.255       .  A
O1803     Co1806   1.956       .  S
O1804      C1811   1.271       .  A
O1804     Co1809   2.030       .  S
O1805      C1812   1.283       .  A
O1805     Co1808   2.039       .  S
C1811      C2017   1.486       .  S
C1812      C1930   1.488       .  S
C1813      C1972   1.487       .  S
C1814      C2003   1.470       .  S
O1815      C1823   1.250       .  A
O1815     Co1835   1.975       .  S
O1816      C1824   1.276       .  A
O1816     Co1836   2.019   1_556  S
O1817      C1825   1.257       .  A
O1817     Co1837   2.031       .  S
O1818      C1826   1.257       .  A
O1818     Co1838   1.975       .  S
O1821      C1824   1.263       .  A
O1821     Co1838   1.959       .  S
O1822      C1823   1.251       .  A
O1822     Co1837   1.989       .  S
C1823      C1888   1.490       .  S
C1824      C2000   1.484       .  S
C1825      C1874   1.493       .  S
C1826      C1989   1.478       .  S
O1829      C1842   1.305       .  A
O1829     Co1837   2.112       .  S
O1830      C1843   1.262       .  A
O1830     Co1838   2.009       .  S
O1831      C1843   1.261   1_554  A
O1831     Co1836   1.984       .  S
O1832      C1842   1.258       .  A
O1832     Co1835   1.846       .  S
O1833      C1840   1.270       .  A
O1833     Co1838   2.023       .  S
O1834      C1841   1.298       .  A
O1834     Co1837   2.077   1_455  S
Co1836     O1839   1.930   1_554  S
Co1838     O1839   2.100       .  S
C1840      C1919   1.497       .  S
C1841      C2014   1.482       .  S
C1842      C2028   1.481       .  S
C1843      C1902   1.484       .  S
O1844      C1852   1.276       .  A
O1844     Co1864   2.040       .  S
O1845      C1853   1.302       .  A
O1845     Co1865   2.119   1_565  S
O1846      C1854   1.255       .  A
O1846     Co1866   1.963       .  S
O1847      C1855   1.271   1_554  A
O1847     Co1867   1.988   1_554  S
O1850      C1853   1.268       .  A
O1850     Co1867   1.896       .  S
O1851      C1852   1.256       .  A
O1851     Co1866   1.951       .  S
C1852      C1975   1.470       .  S
C1853      C1905   1.495       .  S
C1854      C1961   1.483       .  S
C1855      C1877   1.500   1_556  S
O1858      C1871   1.275       .  A
O1858     Co1866   2.038       .  S
O1859      C1872   1.300       .  A
O1859     Co1867   2.128       .  S
O1860      C1872   1.264   1_545  A
O1860     Co1865   1.878       .  S
O1861      C1871   1.254       .  A
O1861     Co1864   1.954       .  S
O1862      C1869   1.265       .  A
O1862     Co1867   2.020       .  S
O1863      C1870   1.277       .  A
O1863     Co1866   2.023       .  S
C1869      C1933   1.482       .  S
C1870      C1916   1.490       .  S
C1871      C1891   1.493       .  S
C1872      C1944   1.490       .  S
C1873      C1878   1.419       .  A
C1873      H1880   1.083       .  S
C1874      C1875   1.413       .  A
C1875      C1876   1.406       .  A
C1875      N1882   1.438       .  S
C1876      H1881   1.084       .  S
C1877      C1878   1.420       .  A
C1878      N1879   1.437       .  S
N1879      H1883   1.046       .  S
N1879      H1884   1.045   1_554  S
N1882      H1885   1.045       .  S
N1882      H1886   1.046       .  S
C1887      C1888   1.402       .  A
C1887      C1892   1.405       .  A
C1887      H1894   1.084       .  S
C1888      C1889   1.419       .  A
C1889      C1890   1.408       .  A
C1889      N1896   1.438       .  S
C1890      C1891   1.403       .  A
C1890      H1895   1.083       .  S
C1891      C1892   1.421       .  A
C1892      N1893   1.439       .  S
N1893      H1897   1.046       .  S
N1893      H1898   1.046       .  S
N1896      H1899   1.045       .  S
N1896      H1900   1.046       .  S
C1901      C1902   1.402   1_554  A
C1901      C1906   1.404       .  A
C1901      H1908   1.079       .  S
C1902      C1903   1.415       .  A
C1903      C1904   1.411       .  A
C1903      N1910   1.438       .  S
C1904      C1905   1.411       .  A
C1904      H1909   1.083       .  S
C1905      C1906   1.412   1_556  A
N1910      H1913   1.044       .  S
N1910      H1914   1.046       .  S
C1915      C1920   1.405       .  A
C1915      H1922   1.084       .  S
C1916      C1917   1.412       .  A
C1917      C1918   1.410       .  A
C1917      N1924   1.438       .  S
C1918      H1923   1.083       .  S
C1919      C1920   1.414   1_556  A
C1920      N1921   1.432       .  S
N1921      H1925   1.045       .  S
N1921      H1926   1.046       .  S
N1924      H1927   1.046       .  S
N1924      H1928   1.046       .  S
C1929      C1930   1.404       .  A
C1929      H1936   1.084       .  S
C1930      C1931   1.420       .  A
C1931      N1938   1.433       .  S
C1932      C1933   1.401       .  A
C1932      H1937   1.084       .  S
C1933      C1934   1.411   1_565  A
C1934      N1935   1.432       .  S
N1935      H1940   1.045       .  S
N1938      H1941   1.045       .  S
C1943      C1944   1.405   1_545  A
C1943      C1948   1.397       .  A
C1943      H1950   1.084       .  S
C1944      C1945   1.412       .  A
C1945      C1946   1.413       .  A
C1946      C1947   1.412       .  A
C1946      H1951   1.083       .  S
C1947      C1948   1.421   1_565  A
C1948      N1949   1.432       .  S
N1949      H1953   1.045       .  S
N1949      H1954   1.045       .  S
N1952      H1955   1.045       .  S
N1952      H1956   1.046       .  S
C1957      C1962   1.400       .  A
C1957      H1964   1.082       .  S
C1958      C1959   1.406       .  A
C1959      C1960   1.406       .  A
C1959      N1966   1.437       .  S
C1960      H1965   1.083       .  S
C1961      C1962   1.415       .  A
C1962      N1963   1.439       .  S
N1963      H1967   1.046       .  S
N1963      H1968   1.045       .  S
N1966      H1969   1.046       .  S
N1966      H1970   1.045       .  S
C1971      C1972   1.410       .  A
C1971      C1976   1.400       .  A
C1971      H1978   1.084       .  S
C1972      C1973   1.413       .  A
C1974      H1979   1.084       .  S
C1975      C1976   1.404       .  A
C1976      N1977   1.433       .  S
N1977      H1981   1.045       .  S
N1977      H1982   1.045       .  S
N1980      H1983   1.046       .  S
N1980      H1984   1.045       .  S
C1985      C1986   1.405       .  A
C1985      C1990   1.396       .  A
C1985      H1992   1.084   1_655  S
C1987      C1988   1.404       .  A
C1987      N1994   1.438       .  S
C1988      C1989   1.404       .  A
C1988      H1993   1.084       .  S
C1990      N1991   1.433   1_655  S
N1991      H1995   1.046       .  S
N1991      H1996   1.045   1_455  S
N1994      H1997   1.046       .  S
N1994      H1998   1.046       .  S
C1999      C2004   1.400       .  A
C1999      H2006   1.083   1_455  S
C2000      C2001   1.412       .  A
C2001      C2002   1.400       .  A
C2001      N2008   1.438       .  S
C2002      C2003   1.406       .  A
C2002      H2007   1.084       .  S
C2004      N2005   1.432   1_455  S
N2005      H2009   1.045   1_655  S
N2005      H2010   1.045       .  S
N2008      H2011   1.045       .  S
N2008      H2012   1.046       .  S
C2013      C2014   1.403   1_655  A
C2013      C2018   1.406       .  A
C2013      H2020   1.084       .  S
C2015      C2016   1.411       .  A
C2015      N2022   1.435       .  S
C2016      C2017   1.406       .  A
C2016      H2021   1.084       .  S
C2018      N2019   1.438       .  S
N2019      H2023   1.044       .  S
N2019      H2024   1.046       .  S
N2022      H2025   1.046       .  S
N2022      H2026   1.045       .  S
C2027      C2032   1.408       .  A
C2027      H2034   1.083       .  S
C2028      C2029   1.420       .  A
C2029      C2030   1.396       .  A
C2029      N2036   1.440       .  S
C2030      C2031   1.399       .  A
C2030      H2035   1.083       .  S
C2032      N2033   1.438       .  S
N2033      H2037   1.046       .  S
N2033      H2038   1.045       .  S
N2036      H2039   1.046       .  S
N2036      H2040   1.046       .  S
