geometry optimzed in LAMMPS
_audit_creation_date              2020-12-01 
_audit_creation_method            'lammps2cif' 
_symmetry_space_group_name_H-M    'P1' 
_symmetry_Int_Tables_number       1 
_symmetry_cell_setting            triclinic 
loop_ 
_symmetry_equiv_pos_as_xyz 
  x,y,z 
_cell_length_a                    47.5327398 
_cell_length_b                    33.505853980845814 
_cell_length_c                    34.091861048632225 
_cell_angle_alpha                 90.67996715607372 
_cell_angle_beta                  89.9604705880796 
_cell_angle_gamma                 89.97172175961165 
loop_ 
_atom_site_label 
_atom_site_type_symbol 
_atom_site_fract_x 
_atom_site_fract_y 
_atom_site_fract_z 
_atom_site_charge 
O1          O  0.16748374  0.27304808  0.02795065    -0.88200
C2          C  0.09018226  0.29967573  0.07221268     0.87800
Mg3        Mg  0.18048831  0.28707848  0.96953617     1.58100
O4          O  0.10224084  0.19896745  0.04962325    -0.88000
O5          O  0.16507445  0.22181936  0.06717111    -0.75300
C6          C  0.07315799  0.22840370  0.85877325     0.92800
O7          O  0.12767514  0.34674005  0.00737706    -0.75100
O8          O  0.09329363  0.25346558  0.85747058    -0.82600
Mg9        Mg  0.14890663  0.32053635  0.06189215     1.58000
C10         C  0.04515005  0.13337167  0.98760980     0.92800
O11         O  0.17089319  0.30008783  0.11791893    -0.80900
H12         H  0.12525168  0.14939572  0.05530185    -0.06200
C13         C  0.06214982  0.26357829  0.96543431     0.87700
O14         O  0.17132462  0.22334041  0.94849900    -0.75400
O15         O  0.11350703  0.28332281  0.07293453    -0.88200
O16         O  0.04773347  0.15422252  0.01885179    -0.81000
C17         C  0.05579710  0.21371359  0.13210936     0.92900
C18         C  0.16735814  0.27885900  0.14821453     0.92700
Mg19       Mg  0.09153822  0.18618536  0.94471745     1.58000
O20         O  0.06938952  0.20666989  0.88869158    -0.80900
O21         O  0.11318090  0.16026621  0.99933440    -0.75100
O22         O  0.08086474  0.22710703  0.13615556    -0.81000
O23         O  0.18525721  0.36219155  0.05070625    -0.82700
O24         O  0.15853647  0.27920336  0.87160720    -0.81000
C25         C  0.11371784  0.16868853  0.03584493     0.87200
O26         O  0.12649681  0.22354481  0.93407595    -0.88100
O27         O  0.07277826  0.23304275  0.97911745    -0.88200
O28         O  0.07527894  0.28533017  0.94121654    -0.75300
Mg29       Mg  0.12243252  0.22662867  0.09903104     1.58000
O30         O  0.04596736  0.20380756  0.09873188    -0.82700
H31         H  0.19902394  0.23395317  0.03317874    -0.06400
O32         O  0.13852864  0.30739471  0.95760119    -0.87900
H33         H  0.11639401  0.35763827  0.95112831    -0.06200
H34         H  0.15097607  0.17592410  0.92427557    -0.06400
C35         C  0.12746074  0.33816257  0.97093119     0.87100
C36         C  0.17819544  0.24298765  0.04245357     0.87700
C37         C  0.14956399  0.20651576  0.93453550     0.87800
H38         H  0.04141475  0.27258836  0.97514185    -0.06400
O39         O  0.06859092  0.28189256  0.05874276    -0.75400
Mg40       Mg  0.11765044  0.28050621  0.90875438     1.58000
H41         H  0.08830408  0.33032492  0.08214506    -0.06400
C42         C  0.19632644  0.37178766  0.01822943     0.92800
O43         O  0.19492135  0.29927622  0.90751335    -0.82600
C44         C  0.18428903  0.28959181  0.87444883     0.92800
O45         O  0.14671590  0.25461567  0.15041916    -0.82600
Mg46       Mg  0.06015216  0.21778751  0.03730879     1.58200
O47         O  0.19418860  0.34995527  0.98757696    -0.81000
O48         O  0.05572143  0.14392044  0.95516211    -0.82700
O49         O  0.42703024  0.76531530  0.01881399    -0.88200
C50         C  0.35108773  0.79385852  0.06523744     0.87800
Mg51       Mg  0.43901551  0.77906260  0.95985257     1.58100
O52         O  0.36189189  0.69270852  0.04406905    -0.88000
O53         O  0.42527867  0.71449379  0.05864033    -0.75300
C54         C  0.32971643  0.71764339  0.85304044     0.92800
O55         O  0.38669730  0.83834150  0.99833743    -0.75100
O56         O  0.35013118  0.74222678  0.85036078    -0.82600
Mg57       Mg  0.40902307  0.81337352  0.05270588     1.58000
C58         C  0.30429193  0.62631183  0.98674160     0.92800
O59         O  0.43199400  0.79447848  0.10865636    -0.80900
H60         H  0.38502842  0.64327869  0.04981979    -0.06200
C61         C  0.32081995  0.75548370  0.95903362     0.87700
O62         O  0.42970041  0.71500247  0.93941739    -0.75400
O63         O  0.37413815  0.77674139  0.06544292    -0.88200
O64         O  0.30664472  0.64934236  0.01645634    -0.81000
C65         C  0.31683137  0.71309740  0.12745391     0.92900
C66         C  0.42903617  0.77352654  0.13927668     0.92700
Mg67       Mg  0.34963787  0.67755751  0.93960228     1.58000
O68         O  0.32629258  0.69676169  0.88368368    -0.80900
O69         O  0.37222854  0.65321416  0.99402638    -0.75100
O70         O  0.34265366  0.72344312  0.13001723    -0.81000
O71         O  0.44467571  0.85479944  0.04001965    -0.82700
O72         O  0.41616205  0.76995920  0.86163044    -0.81000
C73         C  0.37317895  0.66221800  0.03039043     0.87200
O74         O  0.38463542  0.71446544  0.92634491    -0.88100
O75         O  0.33178007  0.72559949  0.97352279    -0.88200
O76         O  0.33349045  0.77631590  0.93361093    -0.75300
Mg77       Mg  0.38333630  0.72054909  0.09207669     1.58000
O78         O  0.30591649  0.70163707  0.09515217    -0.82700
H79         H  0.45851253  0.72598406  0.02308407    -0.06400
O80         O  0.39686784  0.79881667  0.94838768    -0.87900
H81         H  0.37405374  0.84852448  0.94250837    -0.06200
H82         H  0.40925752  0.66700067  0.91645028    -0.06400
C83         C  0.38574415  0.82942898  0.96197641     0.87100
C84         C  0.43793714  0.73530447  0.03316579     0.87700
C85         C  0.40780937  0.69769817  0.92637988     0.87800
H86         H  0.30018359  0.76469388  0.96896829    -0.06400
O87         O  0.32910398  0.77685823  0.05215223    -0.75400
Mg88       Mg  0.37544607  0.77088130  0.90022740     1.58000
H89         H  0.34986051  0.82463712  0.07496886    -0.06400
C90         C  0.45560449  0.86396976  0.00739576     0.92800
O91         O  0.45228638  0.79165502  0.89788345    -0.82600
C92         C  0.44149158  0.78249851  0.86487522     0.92800
O93         O  0.40875620  0.74879345  0.14222013    -0.82600
Mg94       Mg  0.31976323  0.71265536  0.03261881     1.58200
O95         O  0.45283053  0.84228739  0.97677008    -0.81000
O96         O  0.31405092  0.63529895  0.95328211    -0.82700
O97         O  0.41775602  0.22724510  0.47955828    -0.88200
C98         C  0.34145372  0.19750637  0.43582281     0.87800
Mg99       Mg  0.43029731  0.21609136  0.53866237     1.58100
O100        O  0.35268785  0.29913405  0.45503699    -0.88000
O101        O  0.41581622  0.27669951  0.43828034    -0.75300
C102        C  0.32201712  0.27863120  0.64722287     0.92800
O103        O  0.37795000  0.15513840  0.50319510    -0.75100
O104        O  0.34261599  0.25436794  0.64997980    -0.82600
Mg105      Mg  0.39969842  0.17821531  0.44751915     1.58000
C106        C  0.29400381  0.36570961  0.51279090     0.92800
O107        O  0.42204054  0.19571128  0.39042159    -0.80900
H108        H  0.37516245  0.34892876  0.44766343    -0.06200
C109        C  0.31222097  0.23825453  0.54241803     0.87700
O110        O  0.42066242  0.28076225  0.55664130    -0.75400
O111        O  0.36451919  0.21443055  0.43410490    -0.88200
O112        O  0.29749592  0.34331440  0.48283832    -0.81000
C113        C  0.30665081  0.28066747  0.37307183     0.92900
C114        C  0.41862142  0.21602600  0.35943033     0.92700
Mg115      Mg  0.34054131  0.31690776  0.55939169     1.58000
O116        O  0.31806412  0.29869101  0.61620291    -0.80900
O117        O  0.36239255  0.34050038  0.50378910    -0.75100
O118        O  0.33206661  0.26868667  0.36877531    -0.81000
O119        O  0.43574974  0.13730073  0.46129713    -0.82700
O120        O  0.40857867  0.22869684  0.63675798    -0.81000
C121        C  0.36359892  0.33030154  0.46771262     0.87200
O122        O  0.37596565  0.28111987  0.57231325    -0.88100
O123        O  0.32311296  0.26772053  0.52708262    -0.88200
O124        O  0.32511234  0.21799650  0.56804327    -0.75300
Mg125      Mg  0.37336739  0.27035381  0.40642116     1.58000
O126        O  0.29682632  0.28983762  0.40657490    -0.82700
H127        H  0.44952927  0.26570340  0.47304187    -0.06400
O128        O  0.38841076  0.19634648  0.55174144    -0.87900
H129        H  0.36580781  0.14676900  0.55956449    -0.06200
H130        H  0.40039069  0.32929358  0.57885929    -0.06400
C131        C  0.37727598  0.16526027  0.53929055     0.87100
C132        C  0.42871407  0.25649534  0.46393398     0.87700
C133        C  0.39897873  0.29818649  0.57029652     0.87800
H134        H  0.29149164  0.22891113  0.53307299    -0.06400
O135        O  0.31984004  0.21494096  0.44962582    -0.75400
Mg136      Mg  0.36748461  0.22513856  0.59990057     1.58000
H137        H  0.33994006  0.16651108  0.42690080    -0.06400
C138        C  0.44637187  0.12899321  0.49437567     0.92800
O139        O  0.44453501  0.20699753  0.60076958    -0.82600
C140        C  0.43430809  0.21812372  0.63362244     0.92800
O141        O  0.39818068  0.24057200  0.35638538    -0.82600
Mg142      Mg  0.31080693  0.27953230  0.46813773     1.58200
O143        O  0.44416412  0.15219902  0.52403631    -0.81000
O144        O  0.30403379  0.35729340  0.54616617    -0.82700
O145        O  0.17647156  0.73308981  0.47251588    -0.88200
C146        C  0.09990387  0.70637271  0.42743330     0.87800
Mg147      Mg  0.18883944  0.71809350  0.53108036     1.58100
O148        O  0.11119790  0.80704057  0.45079062    -0.88000
O149        O  0.17429393  0.78479418  0.43384613    -0.75300
C150        C  0.08173460  0.77745049  0.64223427     0.92800
O151        O  0.13635377  0.65963186  0.49160532    -0.75100
O152        O  0.10162926  0.75201116  0.64268935    -0.82600
Mg153      Mg  0.15839673  0.68597863  0.43760391     1.58000
C154        C  0.05411718  0.87258451  0.51196867     0.92800
O155        O  0.18122047  0.70675210  0.38162028    -0.80900
H156        H  0.13435903  0.85649001  0.44561055    -0.06200
C157        C  0.07049916  0.74269033  0.53509042     0.87700
O158        O  0.17991715  0.78172667  0.55279853    -0.75400
O159        O  0.12310599  0.72303661  0.42645109    -0.88200
O160        O  0.05594186  0.85065420  0.48133007    -0.81000
C161        C  0.06499289  0.79081836  0.36806022     0.92900
C162        C  0.17722135  0.72837021  0.35153702     0.92700
Mg163      Mg  0.10022328  0.81972933  0.55596746     1.58000
O164        O  0.07776817  0.79975363  0.61260837    -0.80900
O165        O  0.12214517  0.84525745  0.50143863    -0.75100
O166        O  0.09049509  0.77906820  0.36417677    -0.81000
O167        O  0.19436165  0.64408459  0.44924054    -0.82700
O168        O  0.16639507  0.72482989  0.62881007    -0.81000
C169        C  0.12269970  0.83713627  0.46487097     0.87200
O170        O  0.13500805  0.78197678  0.56692064    -0.88100
O171        O  0.08153248  0.77287783  0.52136230    -0.88200
O172        O  0.08337695  0.72062194  0.55922665    -0.75300
Mg173      Mg  0.13188198  0.78004267  0.40137581     1.58000
O174        O  0.05493485  0.80052339  0.40137805    -0.82700
H175        H  0.20794317  0.77240530  0.46829513    -0.06400
O176        O  0.14662326  0.69824572  0.54219210    -0.87900
H177        H  0.12393001  0.64834865  0.54733939    -0.06200
H178        H  0.15974007  0.82914594  0.57741064    -0.06400
C179        C  0.13549947  0.66786233  0.52812971     0.87100
C180        C  0.18723226  0.76339145  0.45856138     0.87700
C181        C  0.15818674  0.79869250  0.56679871     0.87800
H182        H  0.04965222  0.73423732  0.52544558    -0.06400
O183        O  0.07829705  0.72363915  0.44155811    -0.75400
Mg184      Mg  0.12575529  0.72478929  0.59141029     1.58000
H185        H  0.09820683  0.67574956  0.41736585    -0.06400
C186        C  0.20501104  0.63413498  0.48186560     0.92800
O187        O  0.20290652  0.70464759  0.59304670    -0.82600
C188        C  0.19205677  0.71396963  0.62607213     0.92800
O189        O  0.15659833  0.75266961  0.35004033    -0.82600
Mg190      Mg  0.06915230  0.78749458  0.46296045     1.58200
O191        O  0.20201761  0.65522630  0.51283139    -0.81000
O192        O  0.06479018  0.86250702  0.54453327    -0.82700
C193        C  0.46607529  0.01946721  0.48923920    -0.22400
C194        C  0.49285122  0.02046424  0.50612438     0.09600
C195        C  0.00420959  0.05689148  0.51979117     0.10000
C196        C  0.48834673  0.09191890  0.51607858    -0.17300
C197        C  0.46160458  0.09112315  0.49864635    -0.27700
C198        C  0.45005246  0.05425602  0.48574269     0.18300
C199        C  0.00874168  0.98286442  0.50849001     0.12300
C200        C  0.03304200  0.05869594  0.53802365    -0.12000
H201        H  0.99702278  0.12013776  0.52618161     0.12600
C202        C  0.42063068  0.04987391  0.46964277    -0.22900
H203        H  0.45748106  0.99116660  0.47916441     0.08200
C204        C  0.50491212  0.95640463  0.53983583     0.04600
C205        C  0.02020664  0.92066855  0.54024257    -0.20100
C206        C  0.03905457  0.91087416  0.50987463    -0.12400
C207        C  0.04322586  0.93801543  0.47878838     0.13300
C208        C  0.02760555  0.97341309  0.47830522    -0.22800
C209        C  0.48467336  0.96590084  0.57266512    -0.05900
H210        H  0.51718281  0.90001755  0.56412464     0.14800
C211        C  0.06467483  0.93197253  0.44658426    -0.16100
H212        H  0.03050207  0.99422207  0.45450586     0.09100
H213        H  0.40902206  0.02735377  0.48697781     0.07000
H214        H  0.42165765  0.03948304  0.43862694     0.08200
H215        H  0.40812182  0.07769402  0.47113245     0.07200
H216        H  0.04901651  0.04812894  0.51651333     0.02100
H217        H  0.03371161  0.03941441  0.56426403     0.02600
H218        H  0.03867719  0.08955789  0.54730467     0.06100
H219        H  0.48433282  0.94202301  0.59498603     0.05100
H220        H  0.46307497  0.96910673  0.56073669    -0.00700
H221        H  0.49092163  0.99423511  0.58744242     0.00800
H222        H  0.05375195  0.92871770  0.41794556     0.04500
H223        H  0.07846842  0.90581258  0.45081085     0.06400
H224        H  0.07870474  0.95843452  0.44544086     0.07300
C225        C  0.25504856  0.55195617  0.51231824    -0.22400
C226        C  0.24240865  0.51901083  0.49393548     0.09600
C227        C  0.21850540  0.52417307  0.47019061     0.10000
C228        C  0.20745638  0.56253844  0.46566880    -0.17300
C229        C  0.21979956  0.59570333  0.48444152    -0.27700
C230        C  0.24432057  0.59048796  0.50744385     0.18300
C231        C  0.25539611  0.47950961  0.49841410     0.12300
C232        C  0.20468378  0.48918098  0.44981737    -0.12000
H233        H  0.18861517  0.56650557  0.44823123     0.12600
C234        C  0.26040732  0.62461437  0.52599275    -0.22900
H235        H  0.27379812  0.54761972  0.52988287     0.08200
C236        C  0.27785809  0.46737433  0.47410471     0.04600
C237        C  0.28947013  0.42943070  0.47898321    -0.20100
C238        C  0.27926674  0.40371784  0.50786177    -0.12400
C239        C  0.25639640  0.41566171  0.53182812     0.13300
C240        C  0.24482563  0.45372901  0.52689942    -0.22800
C241        C  0.28954700  0.49451848  0.44315782    -0.05900
H242        H  0.30702488  0.42006068  0.46072642     0.14800
C243        C  0.24310327  0.38879129  0.56176780    -0.16100
H244        H  0.22727707  0.46325733  0.54508472     0.09100
H245        H  0.28277633  0.62297426  0.51666551     0.07000
H246        H  0.25941447  0.62234787  0.55843414     0.08200
H247        H  0.25262689  0.65435043  0.51729453     0.07200
H248        H  0.19738658  0.46739255  0.47188949     0.02100
H249        H  0.21995779  0.47435596  0.42975331     0.02600
H250        H  0.18621154  0.49854062  0.43223187     0.06100
H251        H  0.30703288  0.48018098  0.42657549     0.05100
H252        H  0.29774001  0.52226881  0.45710208    -0.00700
H253        H  0.27274157  0.50231894  0.42198555     0.00800
H254        H  0.24540777  0.40234246  0.59146922     0.04500
H255        H  0.25238270  0.35847648  0.56204867     0.06400
H256        H  0.22035360  0.38534868  0.55514511     0.07300
C257        C  0.04703865  0.76739366  0.74339392    -0.22400
C258        C  0.02060267  0.78420334  0.73618046     0.09600
C259        C  0.01486439  0.80061792  0.69922318     0.10000
C260        C  0.03540352  0.79856577  0.66968330    -0.17300
C261        C  0.06180114  0.78057832  0.67609235    -0.27700
C262        C  0.06781131  0.76545780  0.71400986     0.18300
C263        C  0.49915373  0.78419958  0.76778545     0.12300
C264        C  0.48691481  0.81996932  0.69089851    -0.12000
H265        H  0.03046959  0.81050553  0.64109900     0.12600
C266        C  0.09605314  0.74804439  0.72439614    -0.22900
H267        H  0.05132075  0.75547380  0.77221023     0.08200
C268        C  0.48095693  0.75144389  0.77316062     0.04600
C269        C  0.46127556  0.75251029  0.80395647    -0.20100
C270        C  0.45954362  0.78552136  0.82961622    -0.12400
C271        C  0.47711217  0.81903822  0.82309036     0.13300
C272        C  0.49690980  0.81765964  0.79255127    -0.22800
C273        C  0.98264189  0.71520476  0.74670399    -0.05900
H274        H  0.44789226  0.72686567  0.80889713     0.14800
C275        C  0.47512699  0.85719652  0.84688002    -0.16100
H276        H  0.51058196  0.84305191  0.78779114     0.09100
H277        H  0.09985349  0.72017753  0.70730590     0.07000
H278        H  0.09734781  0.74031440  0.75593986     0.08200
H279        H  0.11284073  0.77016331  0.71837231     0.07200
H280        H  0.48361080  0.84560875  0.71131249     0.02100
H281        H  0.46970383  0.79800754  0.69490483     0.02600
H282        H  0.48576537  0.83122963  0.66042944     0.06100
H283        H  0.96691982  0.69224119  0.75488279     0.05100
H284        H  0.00390114  0.70164851  0.74871743    -0.00700
H285        H  0.97861323  0.72391033  0.71589673     0.00800
H286        H  0.49504813  0.86206007  0.86323270     0.04500
H287        H  0.45740116  0.85748824  0.86796513     0.06400
H288        H  0.47177108  0.88267544  0.82686602     0.07300
C289        C  0.49510166  0.79862165  0.19956772    -0.22400
C290        C  0.48781517  0.78331612  0.23617007     0.09600
C291        C  0.46125536  0.76532573  0.24117293     0.10000
C292        C  0.44257971  0.76286709  0.20926348    -0.17300
C293        C  0.44969432  0.77807235  0.17219998    -0.27700
C294        C  0.47660796  0.79620722  0.16746109     0.18300
C295        C  0.00849298  0.78617611  0.26878683     0.12300
C296        C  0.45280832  0.74815978  0.28008278    -0.12000
H297        H  0.42224541  0.74894251  0.21344130     0.12600
C298        C  0.48666607  0.81237861  0.12876471    -0.22900
H299        H  0.01558750  0.81236947  0.19612203     0.08200
C300        C  0.03175339  0.76012231  0.27102177     0.04600
C301        C  0.05032227  0.76328707  0.30299391    -0.20100
C302        C  0.04602743  0.79158533  0.33322339    -0.12400
C303        C  0.02294931  0.81843578  0.33026947     0.13300
C304        C  0.00464942  0.81540730  0.29798155    -0.22800
C305        C  0.03655238  0.72830222  0.24015407    -0.05900
H306        H  0.06780946  0.74263818  0.30497198     0.14800
C307        C  0.01756546  0.85089425  0.36041809    -0.16100
H308        H  0.48694409  0.83565382  0.29566802     0.09100
H309        H  0.98615358  0.78847066  0.10594214     0.07000
H310        H  0.50863567  0.82354592  0.13052400     0.08200
H311        H  0.47329382  0.83786800  0.11984780     0.07200
H312        H  0.45247467  0.77207852  0.30287852     0.02100
H313        H  0.46808503  0.72477002  0.28870236     0.02600
H314        H  0.43155528  0.73444099  0.27886254     0.06100
H315        H  0.05534844  0.70985557  0.24673664     0.05100
H316        H  0.03984582  0.74229282  0.21116949    -0.00700
H317        H  0.01798266  0.70825447  0.23855284     0.00800
H318        H  0.00012341  0.87089545  0.35147738     0.04500
H319        H  0.03671937  0.86949605  0.36422882     0.06400
H320        H  0.51146366  0.83767163  0.38885158     0.07300
C321        C  0.27022759  0.68178058  0.78497273    -0.22400
C322        C  0.26924538  0.71292729  0.75804098     0.09600
C323        C  0.28829340  0.74495627  0.76176067     0.10000
C324        C  0.30787821  0.74525728  0.79258710    -0.17300
C325        C  0.30896867  0.71427248  0.82014176    -0.27700
C326        C  0.28977090  0.68183540  0.81594627     0.18300
C327        C  0.24864498  0.71093688  0.72536037     0.12300
C328        C  0.28809470  0.77866437  0.73289519    -0.12000
H329        H  0.32222609  0.77025303  0.79533016     0.12600
C330        C  0.28977893  0.64664976  0.84317108    -0.22900
H331        H  0.25559505  0.65717053  0.78155796     0.08200
C332        C  0.25406798  0.68806108  0.69126345     0.04600
C333        C  0.23488667  0.68896900  0.66001005    -0.20100
C334        C  0.21018478  0.71220500  0.66184123    -0.12400
C335        C  0.20446150  0.73433239  0.69682164     0.13300
C336        C  0.22382206  0.73334390  0.72801115    -0.22800
C337        C  0.28044773  0.66334480  0.68755578    -0.05900
H338        H  0.23945373  0.67159826  0.63375204     0.14800
C339        C  0.17858381  0.75998253  0.70147544    -0.16100
H340        H  0.21985579  0.75068955  0.75448786     0.09100
H341        H  0.31095862  0.63266658  0.84357782     0.07000
H342        H  0.27450904  0.62335652  0.83374557     0.08200
H343        H  0.28364489  0.65636483  0.87321249     0.07200
H344        H  0.26739202  0.79399214  0.73371084     0.02100
H345        H  0.29193297  0.76674686  0.70283398     0.02600
H346        H  0.30461871  0.80113467  0.73965157     0.06100
H347        H  0.28169248  0.64766635  0.65871732     0.05100
H348        H  0.28088932  0.64049350  0.71085472    -0.00700
H349        H  0.29921168  0.68286738  0.69055151     0.00800
H350        H  0.15948592  0.74101190  0.69998726     0.04500
H351        H  0.17796210  0.78276405  0.67810134     0.06400
H352        H  0.17820919  0.77598862  0.73019252     0.07300
C353        C  0.27764860  0.74859749  0.21924112    -0.22400
C354        C  0.26040222  0.71559677  0.22651750     0.09600
C355        C  0.26232905  0.68153965  0.20193999     0.10000
C356        C  0.28145288  0.68133472  0.17047262    -0.17300
C357        C  0.29859477  0.71452210  0.16275782    -0.27700
C358        C  0.29640101  0.74886728  0.18734334     0.18300
C359        C  0.23928151  0.71835389  0.25858592     0.12300
C360        C  0.24380452  0.64576013  0.20848779    -0.12000
H361        H  0.28282407  0.65523555  0.15145911     0.12600
C362        C  0.31199380  0.78723383  0.17978318    -0.22900
H363        H  0.27573590  0.77494213  0.23784555     0.08200
C364        C  0.24533848  0.70554283  0.29684418     0.04600
C365        C  0.22458091  0.70883623  0.32607324    -0.20100
C366        C  0.19782791  0.72527246  0.31833312    -0.12400
C367        C  0.19198921  0.73840334  0.27966427     0.13300
C368        C  0.21278496  0.73457637  0.25042239    -0.22800
C369        C  0.27385316  0.68889593  0.30692246    -0.05900
H370        H  0.22957997  0.69904037  0.35543223     0.14800
C371        C  0.16394173  0.75588628  0.26842687    -0.16100
H372        H  0.20841745  0.74440147  0.22085814     0.09100
H373        H  0.32633789  0.79382791  0.20471367     0.07000
H374        H  0.29663879  0.81206768  0.17725111     0.08200
H375        H  0.32445974  0.78679558  0.15240056     0.07200
H376        H  0.22136153  0.65462080  0.20621116     0.02100
H377        H  0.24770220  0.63343716  0.23805146     0.02600
H378        H  0.24786317  0.62173533  0.18647557     0.06100
H379        H  0.27520416  0.68043061  0.33826586     0.05100
H380        H  0.29028904  0.71163536  0.30120810    -0.00700
H381        H  0.27824558  0.66190933  0.28876639     0.00800
H382        H  0.16286276  0.76253823  0.23661833     0.04500
H383        H  0.16038126  0.78438122  0.28459777     0.06400
H384        H  0.14685520  0.73441772  0.27509076     0.07300
C385        C  0.01593196  0.19208629  0.78773621    -0.22400
C386        C  0.01413986  0.22447725  0.76242193     0.09600
C387        C  0.03209115  0.25750253  0.76787772     0.10000
C388        C  0.05141339  0.25753126  0.79901896    -0.17300
C389        C  0.05313222  0.22533969  0.82514549    -0.27700
C390        C  0.03511458  0.19190337  0.81901942     0.18300
C391        C  0.49367618  0.22253626  0.72975580     0.12300
C392        C  0.03074187  0.29271176  0.74087070    -0.12000
H393        H  0.06491007  0.28326694  0.80329311     0.12600
C394        C  0.03596978  0.15549027  0.84457218    -0.22900
H395        H  0.50215363  0.16672758  0.78285867     0.08200
C396        C  0.50082849  0.20452188  0.69365177     0.04600
C397        C  0.48082737  0.20300551  0.66353011    -0.20100
C398        C  0.45356797  0.21910067  0.66835247    -0.12400
C399        C  0.44636780  0.23666342  0.70524277     0.13300
C400        C  0.46660256  0.23807601  0.73535870    -0.22800
C401        C  0.52966680  0.18697927  0.68690151    -0.05900
H402        H  0.48678514  0.18917632  0.63586071     0.14800
C403        C  0.41777648  0.25441502  0.71343731    -0.16100
H404        H  0.96136912  0.25152915  0.76351352     0.09100
H405        H  0.55759123  0.14295084  0.84501210     0.07000
H406        H  0.02161923  0.13165093  0.83371996     0.08200
H407        H  0.02912730  0.16346189  0.87474291     0.07200
H408        H  0.00940418  0.30616558  0.74205523     0.02100
H409        H  0.03530782  0.28289485  0.71031386     0.02600
H410        H  0.04623976  0.31611273  0.74919781     0.06100
H411        H  0.53187977  0.17410325  0.65688544     0.05100
H412        H  0.53357922  0.16283323  0.70824031    -0.00700
H413        H  0.54591273  0.21048623  0.69072540     0.00800
H414        H  0.40133815  0.23106142  0.71038541     0.04500
H415        H  0.41355932  0.27914898  0.69286919     0.06400
H416        H  0.91625923  0.26688361  0.74370298     0.07300
C417        C  0.99977227  0.17779850  0.20386406    -0.22400
C418        C  0.99883713  0.20981732  0.23058703     0.09600
C419        C  0.01773794  0.24195033  0.22630006     0.10000
C420        C  0.03674442  0.24184451  0.19465744    -0.17300
C421        C  0.03705169  0.21052734  0.16688068    -0.27700
C422        C  0.01856084  0.17771166  0.17198537     0.18300
C423        C  0.47766504  0.20939913  0.26265415     0.12300
C424        C  0.01749932  0.27659639  0.25485155    -0.12000
H425        H  0.05086094  0.26691667  0.19094002     0.12600
C426        C  0.01889866  0.14203272  0.14457742    -0.22900
H427        H  0.48542064  0.15301459  0.20772772     0.08200
C428        C  0.45028547  0.22453078  0.25726721     0.04600
C429        C  0.43143608  0.22556294  0.28904889    -0.20100
C430        C  0.43913258  0.21145167  0.32629772    -0.12400
C431        C  0.46660122  0.19506063  0.33112226     0.13300
C432        C  0.48538115  0.19442478  0.29921077    -0.22800
C433        C  0.44109872  0.23997349  0.21798765    -0.05900
H434        H  0.41056308  0.23773856  0.28469617     0.14800
C435        C  0.47693434  0.17908355  0.36973753    -0.16100
H436        H  0.00645967  0.18266143  0.30285629     0.09100
H437        H  0.51175561  0.15070874  0.11491270     0.07000
H438        H  0.00462170  0.11805934  0.15479791     0.08200
H439        H  0.04049444  0.12947905  0.14282811     0.07200
H440        H  0.02216143  0.26584505  0.28483167     0.02100
H441        H  0.99649705  0.29110811  0.25479349     0.02600
H442        H  0.03346981  0.29940206  0.24718511     0.06100
H443        H  0.41904498  0.25092874  0.21870324     0.05100
H444        H  0.44252850  0.21571675  0.19560472    -0.00700
H445        H  0.45487299  0.26506117  0.20914868     0.00800
H446        H  0.49914340  0.16887755  0.36796455     0.04500
H447        H  0.46408446  0.15298549  0.37843913     0.06400
H448        H  0.97583740  0.20280017  0.39271603     0.07300
C449        C  0.21445937  0.27387866  0.77059177    -0.22400
C450        C  0.24190382  0.28810753  0.77584306     0.09600
C451        C  0.24987907  0.30446275  0.81236997     0.10000
C452        C  0.23045226  0.30516047  0.84334495    -0.17300
C453        C  0.20292550  0.28999447  0.83894090    -0.27700
C454        C  0.19476865  0.27462191  0.80148671     0.18300
C455        C  0.26220405  0.28526413  0.74285461     0.12300
C456        C  0.27902570  0.32102129  0.81868385    -0.12000
H457        H  0.23708394  0.31748394  0.87136751     0.12600
C458        C  0.16571342  0.25842063  0.79344053    -0.22900
H459        H  0.20856316  0.26169174  0.74216436     0.08200
C460        C  0.27953374  0.25149766  0.73755474     0.04600
C461        C  0.29910650  0.25063938  0.70666841    -0.20100
C462        C  0.30160159  0.28258686  0.68041167    -0.12400
C463        C  0.28395072  0.31655177  0.68594528     0.13300
C464        C  0.26461897  0.31734701  0.71719323    -0.22800
C465        C  0.27723370  0.21628938  0.76445064    -0.05900
H466        H  0.31218948  0.22441851  0.70265285     0.14800
C467        C  0.28548136  0.35254631  0.65985645    -0.16100
H468        H  0.25126815  0.34322439  0.72178308     0.09100
H469        H  0.16341598  0.24780135  0.76261740     0.07000
H470        H  0.14977033  0.28217433  0.79842093     0.08200
H471        H  0.16140512  0.23264802  0.81270551     0.07200
H472        H  0.28284232  0.34584590  0.79806825     0.02100
H473        H  0.29493133  0.29728617  0.81344699     0.02600
H474        H  0.28189818  0.33273128  0.84903141     0.06100
H475        H  0.29227022  0.19222017  0.75623204     0.05100
H476        H  0.25562395  0.20380087  0.76297403    -0.00700
H477        H  0.28178993  0.22578553  0.79509090     0.00800
H478        H  0.27144873  0.37697667  0.67030519     0.04500
H479        H  0.27866986  0.34444127  0.62968619     0.06400
H480        H  0.30729860  0.36435601  0.65940055     0.07300
C481        C  0.24527198  0.30807414  0.30614359    -0.22400
C482        C  0.24918571  0.28115833  0.27502014     0.09600
C483        C  0.27297957  0.25599136  0.27458993     0.10000
C484        C  0.29184896  0.25720116  0.30636494    -0.17300
C485        C  0.28742990  0.28305291  0.33862418    -0.27700
C486        C  0.26400205  0.30956566  0.33791295     0.18300
C487        C  0.22808458  0.28041968  0.24301987     0.12300
C488        C  0.27827352  0.22774543  0.24070155    -0.12000
H489        H  0.30973468  0.23713335  0.30640923     0.12600
C490        C  0.25862519  0.34025025  0.36985516    -0.22900
H491        H  0.22719531  0.32781622  0.30566555     0.08200
C492        C  0.20395998  0.25611133  0.24477807     0.04600
C493        C  0.18440951  0.25683162  0.21389911    -0.20100
C494        C  0.18817160  0.28163656  0.18117831    -0.12400
C495        C  0.21229453  0.30701200  0.18033988     0.13300
C496        C  0.23181051  0.30581056  0.21124873    -0.22800
C497        C  0.19888682  0.22943098  0.27932861    -0.05900
H498        H  0.16616807  0.23753927  0.21536013     0.14800
C499        C  0.21811713  0.33560651  0.14741392    -0.15700
H500        H  0.25025047  0.32483507  0.21071696     0.09100
H501        H  0.25272164  0.32539346  0.39757185     0.07000
H502        H  0.24101828  0.36055397  0.36225975     0.08200
H503        H  0.27767244  0.35890986  0.37441978     0.07200
H504        H  0.28047327  0.24489234  0.21320017     0.02100
H505        H  0.26041121  0.20661711  0.23761984     0.02600
H506        H  0.29780985  0.21011297  0.24490868     0.06100
H507        H  0.17901202  0.21227738  0.27617470     0.05100
H508        H  0.19748402  0.24774232  0.30661726    -0.00700
H509        H  0.21646961  0.20783687  0.28208769     0.00800
H510        H  0.23751532  0.35335522  0.15266593     0.04500
H511        H  0.20044197  0.35706706  0.14465554     0.06400
H512        H  0.22121917  0.31886318  0.11945241     0.07300
C513        C  0.00802151  0.94479529  0.98132452    -0.22400
C514        C  0.49429496  0.97836470  0.99699215     0.09600
C515        C  0.46851395  0.97409871  0.01685663     0.10000
C516        C  0.45686066  0.93603876  0.02050343    -0.17300
C517        C  0.47038722  0.90228446  0.00462480    -0.27700
C518        C  0.49655403  0.90654194  0.98528148     0.18300
C519        C  0.00786121  0.01766320  0.99405399     0.12300
C520        C  0.45341825  0.00968302  0.03430349    -0.12000
H521        H  0.43677715  0.93268157  0.03520627     0.12600
C522        C  0.01353039  0.87164376  0.96999314    -0.22900
H523        H  0.02810984  0.94842365  0.96669435     0.08200
C524        C  0.02847719  0.02980334  0.02132863     0.04600
C525        C  0.03974411  0.06824490  0.01887092    -0.20100
C526        C  0.03084149  0.09463558  0.98974005    -0.12400
C527        C  0.00983659  0.08254894  0.96269677     0.13300
C528        C  0.49883172  0.04388037  0.96497784    -0.22800
C529        C  0.03836863  0.00228634  0.05313506    -0.05900
H530        H  0.05590752  0.07758773  0.03944739     0.14800
C531        C  0.49762404  0.10992009  0.93235066    -0.16100
H532        H  0.48258546  0.03440699  0.94458206     0.09100
H533        H  0.03486766  0.87251745  0.98323434     0.07000
H534        H  0.01559504  0.87364258  0.93763631     0.08200
H535        H  0.50430323  0.84232307  0.97724913     0.07200
H536        H  0.44803058  0.03104775  0.01083007     0.02100
H537        H  0.46713086  0.02477278  0.05625948     0.02600
H538        H  0.43360527  0.00092658  0.04918928     0.06100
H539        H  0.05446428  0.01668513  0.07218860     0.05100
H540        H  0.04782786  0.97503128  0.03980187    -0.00700
H541        H  0.02030295  0.99364860  0.07186604     0.00800
H542        H  0.50238642  0.09801086  0.90255182     0.04500
H543        H  0.00562857  0.14085922  0.93477498     0.06400
H544        H  0.47443360  0.11146331  0.93607366     0.07300
C545        C  0.28063155  0.52704498  0.02728566    -0.22400
C546        C  0.25957503  0.51670342  0.00046780     0.09600
C547        C  0.25364465  0.54175991  0.96859117     0.10000
C548        C  0.26898505  0.57714545  0.96436740    -0.17300
C549        C  0.28988386  0.58790918  0.99152097    -0.27700
C550        C  0.29624906  0.56207888  0.02295788     0.18300
C551        C  0.24413225  0.47916826  0.00616239     0.12300
C552        C  0.23108730  0.53115529  0.93926169    -0.12000
H553        H  0.26431787  0.59684718  0.94021847     0.12600
C554        C  0.31999274  0.56929687  0.05155025    -0.22900
H555        H  0.28525114  0.50720340  0.05135690     0.08200
C556        C  0.25435950  0.44269768  0.99096317     0.04600
C557        C  0.23835262  0.40804145  0.99584655    -0.20100
C558        C  0.21241050  0.40917994  0.01558895    -0.12400
C559        C  0.20219282  0.44603474  0.03075899     0.13300
C560        C  0.21852899  0.48044721  0.02634553    -0.22800
C561        C  0.28198721  0.44053664  0.96935015    -0.05900
H562        H  0.24608930  0.37988148  0.98412320     0.14800
C563        C  0.17368610  0.45111723  0.04969691    -0.16100
H564        H  0.21081706  0.50882258  0.03761762     0.09100
H565        H  0.33405384  0.54281308  0.05170671     0.07000
H566        H  0.31128898  0.57389182  0.08149712     0.08200
H567        H  0.33332210  0.59517220  0.04416455     0.07200
H568        H  0.21045443  0.52891011  0.95435198     0.02100
H569        H  0.23609152  0.50207916  0.92494115     0.02600
H570        H  0.22924211  0.55398276  0.91604189     0.06100
H571        H  0.28679918  0.40966377  0.95918045     0.05100
H572        H  0.29927077  0.45060403  0.98898528    -0.00700
H573        H  0.28126413  0.46004206  0.94327334     0.00800
H574        H  0.17637593  0.46055678  0.08079685     0.04500
H575        H  0.16051941  0.42395452  0.04866480     0.06400
H576        H  0.16175951  0.47462617  0.03411895     0.07300
O577        O  0.66748404  0.27304785  0.02795069    -0.88200
C578        C  0.59018245  0.29967576  0.07221289     0.87800
Mg579      Mg  0.68048842  0.28707845  0.96953615     1.58100
O580        O  0.60224097  0.19896745  0.04962324    -0.88000
O581        O  0.66507456  0.22181927  0.06717111    -0.75300
C582        C  0.57315791  0.22840367  0.85877347     0.92800
O583        O  0.62767522  0.34673979  0.00737731    -0.75100
O584        O  0.59329356  0.25346559  0.85747075    -0.82600
Mg585      Mg  0.64890676  0.32053631  0.06189220     1.58000
C586        C  0.54515022  0.13337151  0.98760984     0.92800
O587        O  0.67089335  0.30008780  0.11791899    -0.80900
H588        H  0.62525194  0.14939583  0.05530208    -0.06200
C589        C  0.56214971  0.26357841  0.96543451     0.87700
O590        O  0.67132467  0.22334063  0.94849907    -0.75400
O591        O  0.61350712  0.28332255  0.07293445    -0.88200
O592        O  0.54773361  0.15422239  0.01885179    -0.81000
C593        C  0.55579720  0.21371334  0.13210945     0.92900
C594        C  0.66735824  0.27885900  0.14821459     0.92700
Mg595      Mg  0.59153835  0.18618528  0.94471752     1.58000
O596        O  0.56938944  0.20666989  0.88869181    -0.80900
O597        O  0.61318109  0.16026608  0.99933450    -0.75100
O598        O  0.58086479  0.22710691  0.13615553    -0.81000
O599        O  0.68525725  0.36219147  0.05070626    -0.82700
O600        O  0.65853649  0.27920326  0.87160723    -0.81000
C601        C  0.61371801  0.16868858  0.03584496     0.87200
O602        O  0.62649680  0.22354527  0.93407639    -0.88100
O603        O  0.57277795  0.23304291  0.97911766    -0.88200
O604        O  0.57527889  0.28533002  0.94121683    -0.75300
Mg605      Mg  0.62243260  0.22662851  0.09903106     1.58000
O606        O  0.54596758  0.20380745  0.09873192    -0.82700
H607        H  0.69902416  0.23395230  0.03317853    -0.06400
O608        O  0.63852861  0.30739480  0.95760119    -0.87900
H609        H  0.61639403  0.35763860  0.95112895    -0.06200
H610        H  0.65097581  0.17592485  0.92427560    -0.06400
C611        C  0.62746070  0.33816264  0.97093138     0.87100
C612        C  0.67819555  0.24298738  0.04245360     0.87700
C613        C  0.64956395  0.20651597  0.93453557     0.87800
H614        H  0.54141420  0.27258882  0.97514168    -0.06400
O615        O  0.56859097  0.28189282  0.05874300    -0.75400
Mg616      Mg  0.61765042  0.28050634  0.90875444     1.58000
H617        H  0.58830457  0.33032463  0.08214608    -0.06400
C618        C  0.69632640  0.37178766  0.01822941     0.92800
O619        O  0.69492141  0.29927625  0.90751325    -0.82600
C620        C  0.68428905  0.28959170  0.87444876     0.92800
O621        O  0.64671602  0.25461551  0.15041918    -0.82600
Mg622      Mg  0.56015222  0.21778743  0.03730894     1.58200
O623        O  0.69418866  0.34995519  0.98757697    -0.81000
O624        O  0.55572158  0.14392022  0.95516215    -0.82700
O625        O  0.92703044  0.76531526  0.01881366    -0.88200
C626        C  0.85108774  0.79385861  0.06523717     0.87800
Mg627      Mg  0.93901551  0.77906248  0.95985219     1.58100
O628        O  0.86189183  0.69270864  0.04406871    -0.88000
O629        O  0.92527862  0.71449382  0.05864002    -0.75300
C630        C  0.82971637  0.71764335  0.85304022     0.92800
O631        O  0.88669723  0.83834158  0.99833695    -0.75100
O632        O  0.85013118  0.74222664  0.85036041    -0.82600
Mg633      Mg  0.90902308  0.81337347  0.05270540     1.58000
C634        C  0.80429191  0.62631180  0.98674150     0.92800
O635        O  0.93199398  0.79447871  0.10865609    -0.80900
H636        H  0.88502836  0.64327893  0.04981908    -0.06200
C637        C  0.82081996  0.75548370  0.95903333     0.87700
O638        O  0.92970027  0.71500255  0.93941723    -0.75400
O639        O  0.87413817  0.77674149  0.06544260    -0.88200
O640        O  0.80664466  0.64934239  0.01645624    -0.81000
C641        C  0.81683138  0.71309754  0.12745365     0.92900
C642        C  0.92903610  0.77352680  0.13927642     0.92700
Mg643      Mg  0.84963781  0.67755756  0.93960191     1.58000
O644        O  0.82629266  0.69676156  0.88368341    -0.80900
O645        O  0.87222842  0.65321424  0.99402593    -0.75100
O646        O  0.84265369  0.72344320  0.13001694    -0.81000
O647        O  0.94467569  0.85479943  0.04001917    -0.82700
O648        O  0.91616202  0.76995881  0.86163024    -0.81000
C649        C  0.87317892  0.66221805  0.03039006     0.87200
O650        O  0.88463534  0.71446507  0.92634467    -0.88100
O651        O  0.83178007  0.72559950  0.97352254    -0.88200
O652        O  0.83349046  0.77631584  0.93361059    -0.75300
Mg653      Mg  0.88333630  0.72054920  0.09207640     1.58000
O654        O  0.80591647  0.70163718  0.09515195    -0.82700
H655        H  0.95851252  0.72598335  0.02308359    -0.06400
O656        O  0.89686784  0.79881644  0.94838739    -0.87900
H657        H  0.87405373  0.84852404  0.94250778    -0.06200
H658        H  0.90925779  0.66700045  0.91645045    -0.06400
C659        C  0.88574415  0.82942890  0.96197592     0.87100
C660        C  0.93793714  0.73530439  0.03316555     0.87700
C661        C  0.90780936  0.69769791  0.92637973     0.87800
H662        H  0.80018360  0.76469391  0.96896800    -0.06400
O663        O  0.82910399  0.77685831  0.05215193    -0.75400
Mg664      Mg  0.87544606  0.77088120  0.90022710     1.58000
H665        H  0.84986052  0.82463722  0.07496866    -0.06400
C666        C  0.95560444  0.86396973  0.00739527     0.92800
O667        O  0.95228631  0.79165484  0.89788306    -0.82600
C668        C  0.94149153  0.78249830  0.86487489     0.92800
O669        O  0.90875618  0.74879360  0.14221973    -0.82600
Mg670      Mg  0.81976322  0.71265525  0.03261857     1.58200
O671        O  0.95283049  0.84228736  0.97676959    -0.81000
O672        O  0.81405091  0.63529883  0.95328189    -0.82700
O673        O  0.91775595  0.22724487  0.47955829    -0.88200
C674        C  0.84145355  0.19750639  0.43582288     0.87800
Mg675      Mg  0.93029725  0.21609113  0.53866238     1.58100
O676        O  0.85268796  0.29913414  0.45503695    -0.88000
O677        O  0.91581624  0.27669925  0.43828033    -0.75300
C678        C  0.82201708  0.27863081  0.64722288     0.92800
O679        O  0.87794973  0.15513802  0.50319546    -0.75100
O680        O  0.84261602  0.25436771  0.64997986    -0.82600
Mg681      Mg  0.89969823  0.17821514  0.44751918     1.58000
C682        C  0.79400385  0.36570960  0.51279101     0.92800
O683        O  0.92204039  0.19571095  0.39042152    -0.80900
H684        H  0.87516296  0.34892872  0.44766306    -0.06200
C685        C  0.81222096  0.23825445  0.54241798     0.87700
O686        O  0.92066240  0.28076204  0.55664128    -0.75400
O687        O  0.86451913  0.21443031  0.43410483    -0.88200
O688        O  0.79749598  0.34331443  0.48283833    -0.81000
C689        C  0.80665080  0.28066732  0.37307193     0.92900
C690        C  0.91862137  0.21602596  0.35943037     0.92700
Mg691      Mg  0.84054141  0.31690769  0.55939180     1.58000
O692        O  0.81806416  0.29869075  0.61620295    -0.80900
O693        O  0.86239278  0.34050034  0.50378899    -0.75100
O694        O  0.83206664  0.26868672  0.36877532    -0.81000
O695        O  0.93574959  0.13730046  0.46129717    -0.82700
O696        O  0.90857864  0.22869660  0.63675791    -0.81000
C697        C  0.86359907  0.33030136  0.46771267     0.87200
O698        O  0.87596563  0.28111964  0.57231328    -0.88100
O699        O  0.82311297  0.26772051  0.52708261    -0.88200
O700        O  0.82511230  0.21799636  0.56804326    -0.75300
Mg701      Mg  0.87336740  0.27035384  0.40642117     1.58000
O702        O  0.79682642  0.28983764  0.40657503    -0.82700
H703        H  0.94952927  0.26570303  0.47304187    -0.06400
O704        O  0.88841053  0.19634593  0.55174170    -0.87900
H705        H  0.86580729  0.14676820  0.55956515    -0.06200
H706        H  0.90039065  0.32929348  0.57885922    -0.06400
C707        C  0.87727570  0.16526006  0.53929067     0.87100
C708        C  0.92871406  0.25649504  0.46393397     0.87700
C709        C  0.89897870  0.29818613  0.57029651     0.87800
H710        H  0.79149165  0.22891115  0.53307302    -0.06400
O711        O  0.81984002  0.21494129  0.44962595    -0.75400
Mg712      Mg  0.86748454  0.22513844  0.59990057     1.58000
H713        H  0.83993948  0.16651118  0.42690100    -0.06400
C714        C  0.94637168  0.12899287  0.49437574     0.92800
O715        O  0.94453484  0.20699719  0.60076945    -0.82600
C716        C  0.93430804  0.21812353  0.63362229     0.92800
O717        O  0.89818055  0.24057182  0.35638536    -0.82600
Mg718      Mg  0.81080696  0.27953236  0.46813764     1.58200
O719        O  0.94416395  0.15219870  0.52403635    -0.81000
O720        O  0.80403388  0.35729341  0.54616629    -0.82700
O721        O  0.67647189  0.73308998  0.47251581    -0.88200
C722        C  0.59990396  0.70637291  0.42743316     0.87800
Mg723      Mg  0.68883937  0.71809340  0.53108027     1.58100
O724        O  0.61119795  0.80704056  0.45079063    -0.88000
O725        O  0.67429432  0.78479427  0.43384619    -0.75300
C726        C  0.58173446  0.77745044  0.64223430     0.92800
O727        O  0.63635393  0.65963192  0.49160506    -0.75100
O728        O  0.60162899  0.75201088  0.64268924    -0.82600
Mg729      Mg  0.65839697  0.68597873  0.43760375     1.58000
C730        C  0.55411713  0.87258466  0.51196836     0.92800
O731        O  0.68122069  0.70675214  0.38162002    -0.80900
H732        H  0.63435978  0.85648926  0.44561079    -0.06200
C733        C  0.57049900  0.74269010  0.53509000     0.87700
O734        O  0.67991702  0.78172610  0.55279831    -0.75400
O735        O  0.62310612  0.72303681  0.42645112    -0.88200
O736        O  0.55594187  0.85065432  0.48132976    -0.81000
C737        C  0.56499300  0.79081838  0.36806001     0.92900
C738        C  0.67722151  0.72837042  0.35153689     0.92700
Mg739      Mg  0.60022325  0.81972923  0.55596740     1.58000
O740        O  0.57776802  0.79975360  0.61260839    -0.80900
O741        O  0.62214518  0.84525735  0.50143858    -0.75100
O742        O  0.59049516  0.77906811  0.36417666    -0.81000
O743        O  0.69436187  0.64408468  0.44924045    -0.82700
O744        O  0.66639491  0.72482970  0.62880987    -0.81000
C745        C  0.62269983  0.83713627  0.46487090     0.87200
O746        O  0.63500796  0.78197650  0.56692050    -0.88100
O747        O  0.58153212  0.77287772  0.52136207    -0.88200
O748        O  0.58337671  0.72062187  0.55922626    -0.75300
Mg749      Mg  0.63188206  0.78004265  0.40137570     1.58000
O750        O  0.55493503  0.80052369  0.40137776    -0.82700
H751        H  0.70794383  0.77240551  0.46829532    -0.06400
O752        O  0.64662333  0.69824584  0.54219166    -0.87900
H753        H  0.62393016  0.64834904  0.54733896    -0.06200
H754        H  0.65974035  0.82914503  0.57741062    -0.06400
C755        C  0.63549954  0.66786228  0.52812952     0.87100
C756        C  0.68723248  0.76339156  0.45856141     0.87700
C757        C  0.65818673  0.79869233  0.56679852     0.87800
H758        H  0.54965171  0.73423702  0.52544535    -0.06400
O759        O  0.57829714  0.72363952  0.44155785    -0.75400
Mg760      Mg  0.62575516  0.72478903  0.59140990     1.58000
H761        H  0.59820680  0.67575018  0.41736535    -0.06400
C762        C  0.70501114  0.63413499  0.48186554     0.92800
O763        O  0.70290636  0.70464751  0.59304662    -0.82600
C764        C  0.69205655  0.71396918  0.62607202     0.92800
O765        O  0.65659839  0.75266970  0.35004028    -0.82600
Mg766      Mg  0.56915232  0.78749457  0.46296014     1.58200
O767        O  0.70201766  0.65522625  0.51283141    -0.81000
O768        O  0.56479006  0.86250712  0.54453301    -0.82700
C769        C  0.96607512  0.01946672  0.48923922    -0.22400
C770        C  0.99285095  0.02046361  0.50612480     0.09600
C771        C  0.50421009  0.05689219  0.51979041     0.10000
C772        C  0.98834622  0.09191828  0.51607913    -0.17300
C773        C  0.96160423  0.09112257  0.49864639    -0.27700
C774        C  0.95005228  0.05425563  0.48574280     0.18300
C775        C  0.50874200  0.98286503  0.50848920     0.12300
C776        C  0.53304263  0.05869617  0.53802222    -0.12000
H777        H  0.49702361  0.12013912  0.52618112     0.12600
C778        C  0.92063055  0.04987377  0.46964312    -0.22900
H779        H  0.95748092  0.99116615  0.47916400     0.08200
C780        C  0.00491191  0.95640394  0.53983655     0.04600
C781        C  0.52020666  0.92066901  0.54024220    -0.20100
C782        C  0.53905457  0.91087445  0.50987424    -0.12400
C783        C  0.54322592  0.93801578  0.47878772     0.13300
C784        C  0.52760574  0.97341348  0.47830449    -0.22800
C785        C  0.98467305  0.96589911  0.57266595    -0.05900
H786        H  0.01718307  0.90001698  0.56412496     0.14800
C787        C  0.56467479  0.93197242  0.44658361    -0.16100
H788        H  0.53050240  0.99422288  0.45450456     0.09100
H789        H  0.90902211  0.02735334  0.48697816     0.07000
H790        H  0.92165769  0.03948311  0.43862743     0.08200
H791        H  0.90812154  0.07769386  0.47113266     0.07200
H792        H  0.54901710  0.04812932  0.51651164     0.02100
H793        H  0.53371197  0.03941479  0.56426269     0.02600
H794        H  0.53867788  0.08955806  0.54730318     0.06100
H795        H  0.98433295  0.94202083  0.59498692     0.05100
H796        H  0.96307472  0.96910499  0.56073753    -0.00700
H797        H  0.99092120  0.99423302  0.58744349     0.00800
H798        H  0.55375172  0.92871759  0.41794494     0.04500
H799        H  0.57846830  0.90581250  0.45081027     0.06400
H800        H  0.57870486  0.95843420  0.44544006     0.07300
C801        C  0.75504872  0.55195642  0.51231816    -0.22400
C802        C  0.74240901  0.51901093  0.49393507     0.09600
C803        C  0.71850598  0.52417328  0.47018990     0.10000
C804        C  0.70745698  0.56253867  0.46566843    -0.17300
C805        C  0.71979998  0.59570358  0.48444129    -0.27700
C806        C  0.74432054  0.59048819  0.50744398     0.18300
C807        C  0.75539656  0.47950974  0.49841368     0.12300
C808        C  0.70468434  0.48918156  0.44981559    -0.12000
H809        H  0.68861642  0.56650582  0.44823033     0.12600
C810        C  0.76040690  0.62461456  0.52599355    -0.22900
H811        H  0.77379795  0.54762027  0.52988286     0.08200
C812        C  0.77785864  0.46737437  0.47410450     0.04600
C813        C  0.78947041  0.42943062  0.47898315    -0.20100
C814        C  0.77926691  0.40371795  0.50786188    -0.12400
C815        C  0.75639674  0.41566228  0.53182839     0.13300
C816        C  0.74482611  0.45372940  0.52689927    -0.22800
C817        C  0.78954760  0.49451822  0.44315741    -0.05900
H818        H  0.80702543  0.42006050  0.46072685     0.14800
C819        C  0.74310350  0.38879283  0.56176887    -0.16100
H820        H  0.72727773  0.46325778  0.54508455     0.09100
H821        H  0.78277596  0.62297472  0.51666701     0.07000
H822        H  0.75941394  0.62234784  0.55843497     0.08200
H823        H  0.75262652  0.65435072  0.51729547     0.07200
H824        H  0.69738704  0.46739298  0.47188712     0.02100
H825        H  0.71995833  0.47435635  0.42975162     0.02600
H826        H  0.68621201  0.49854119  0.43222984     0.06100
H827        H  0.80703347  0.48018053  0.42657502     0.05100
H828        H  0.79774054  0.52226854  0.45710165    -0.00700
H829        H  0.77274224  0.50231870  0.42198510     0.00800
H830        H  0.74540833  0.40234475  0.59147027     0.04500
H831        H  0.75238257  0.35847813  0.56205023     0.06400
H832        H  0.72035380  0.38535039  0.55514635     0.07300
C833        C  0.54703864  0.76739335  0.74339411    -0.22400
C834        C  0.52060275  0.78420344  0.73618079     0.09600
C835        C  0.51486449  0.80061856  0.69922366     0.10000
C836        C  0.53540348  0.79856613  0.66968357    -0.17300
C837        C  0.56180100  0.78057834  0.67609242    -0.27700
C838        C  0.56781123  0.76545751  0.71400983     0.18300
C839        C  0.99915387  0.78419970  0.76778526     0.12300
C840        C  0.98691464  0.81996788  0.69089735    -0.12000
H841        H  0.53046971  0.81050681  0.64109953     0.12600
C842        C  0.59605317  0.74804438  0.72439552    -0.22900
H843        H  0.55132059  0.75547283  0.77221053     0.08200
C844        C  0.98095713  0.75144373  0.77316060     0.04600
C845        C  0.96127581  0.75250996  0.80395642    -0.20100
C846        C  0.95954366  0.78552112  0.82961589    -0.12400
C847        C  0.97711203  0.81903838  0.82308970     0.13300
C848        C  0.99690962  0.81765992  0.79255062    -0.22800
C849        C  0.48264166  0.71520513  0.74670383    -0.05900
H850        H  0.94789298  0.72686491  0.80889767     0.14800
C851        C  0.97512635  0.85719663  0.84687925    -0.16100
H852        H  0.01058205  0.84305285  0.78779023     0.09100
H853        H  0.59985372  0.72017760  0.70730532     0.07000
H854        H  0.59734788  0.74031439  0.75593906     0.08200
H855        H  0.61284057  0.77016389  0.71837159     0.07200
H856        H  0.98361027  0.84560734  0.71131085     0.02100
H857        H  0.96970375  0.79800594  0.69490397     0.02600
H858        H  0.98576549  0.83122805  0.66042806     0.06100
H859        H  0.46691938  0.69224174  0.75488213     0.05100
H860        H  0.50390090  0.70164863  0.74871733    -0.00700
H861        H  0.47861303  0.72391106  0.71589672     0.00800
H862        H  0.99504745  0.86206040  0.86323189     0.04500
H863        H  0.95740053  0.85748817  0.86796437     0.06400
H864        H  0.97177035  0.88267569  0.82686540     0.07300
C865        C  0.99510110  0.79862357  0.19956812    -0.22400
C866        C  0.98781519  0.78331634  0.23616991     0.09600
C867        C  0.96125589  0.76532444  0.24117234     0.10000
C868        C  0.94258011  0.76286563  0.20926292    -0.17300
C869        C  0.94969419  0.77807256  0.17219983    -0.27700
C870        C  0.97660743  0.79620921  0.16746145     0.18300
C871        C  0.50849284  0.78617599  0.26878685     0.12300
C872        C  0.95280980  0.74815731  0.28008200    -0.12000
H873        H  0.92224613  0.74893951  0.21344054     0.12600
C874        C  0.98666518  0.81238281  0.12876560    -0.22900
H875        H  0.51558834  0.81236655  0.19612136     0.08200
C876        C  0.53175261  0.76012097  0.27102271     0.04600
C877        C  0.55032149  0.76328581  0.30299479    -0.20100
C878        C  0.54602747  0.79158545  0.33322317    -0.12400
C879        C  0.52295021  0.81843735  0.33026811     0.13300
C880        C  0.50465019  0.81540861  0.29798035    -0.22800
C881        C  0.53655117  0.72829934  0.24015623    -0.05900
H882        H  0.56780776  0.74263617  0.30497381     0.14800
C883        C  0.51756763  0.85089734  0.36041550    -0.16100
H884        H  0.98694293  0.83565104  0.29567026     0.09100
H885        H  0.48615362  0.78846522  0.10594251     0.07000
H886        H  0.00863440  0.82355183  0.13052534     0.08200
H887        H  0.97329203  0.83787160  0.11984976     0.07200
H888        H  0.95247570  0.77207578  0.30287835     0.02100
H889        H  0.96808727  0.72476828  0.28870104     0.02600
H890        H  0.93155735  0.73443740  0.27886182     0.06100
H891        H  0.55534690  0.70985207  0.24673962     0.05100
H892        H  0.53984532  0.74228874  0.21117118    -0.00700
H893        H  0.51798112  0.70825245  0.23855535     0.00800
H894        H  0.50012621  0.87089950  0.35147412     0.04500
H895        H  0.53672220  0.86949791  0.36422552     0.06400
H896        H  0.01146170  0.83766701  0.38885366     0.07300
C897        C  0.77022754  0.68178038  0.78497265    -0.22400
C898        C  0.76924522  0.71292739  0.75804087     0.09600
C899        C  0.78829327  0.74495634  0.76176044     0.10000
C900        C  0.80787802  0.74525700  0.79258689    -0.17300
C901        C  0.80896854  0.71427212  0.82014159    -0.27700
C902        C  0.78977081  0.68183509  0.81594637     0.18300
C903        C  0.74864479  0.71093679  0.72536012     0.12300
C904        C  0.78809489  0.77866489  0.73289518    -0.12000
H905        H  0.82222538  0.77025288  0.79533044     0.12600
C906        C  0.78977891  0.64664931  0.84317140    -0.22900
H907        H  0.75559472  0.65717089  0.78155834     0.08200
C908        C  0.75406796  0.68806071  0.69126321     0.04600
C909        C  0.73488672  0.68896855  0.66000957    -0.20100
C910        C  0.71018477  0.71220446  0.66184079    -0.12400
C911        C  0.70446130  0.73433178  0.69682129     0.13300
C912        C  0.72382174  0.73334352  0.72801099    -0.22800
C913        C  0.78044811  0.66334500  0.68755655    -0.05900
H914        H  0.73945392  0.67159734  0.63375095     0.14800
C915        C  0.67858357  0.75998187  0.70147458    -0.16100
H916        H  0.71985526  0.75068883  0.75448780     0.09100
H917        H  0.81095855  0.63266599  0.84357834     0.07000
H918        H  0.77450904  0.62335600  0.83374614     0.08200
H919        H  0.78364497  0.65636432  0.87321291     0.07200
H920        H  0.76739233  0.79399295  0.73371048     0.02100
H921        H  0.79193343  0.76674726  0.70283422     0.02600
H922        H  0.80461915  0.80113511  0.73965171     0.06100
H923        H  0.78169330  0.64766648  0.65871848     0.05100
H924        H  0.78088980  0.64049379  0.71085575    -0.00700
H925        H  0.79921202  0.68286788  0.69055264     0.00800
H926        H  0.65948585  0.74101084  0.69998626     0.04500
H927        H  0.67796192  0.78276351  0.67810028     0.06400
H928        H  0.67820871  0.77598784  0.73019142     0.07300
C929        C  0.77764885  0.74859753  0.21924085    -0.22400
C930        C  0.76040231  0.71559673  0.22651734     0.09600
C931        C  0.76232906  0.68153971  0.20194013     0.10000
C932        C  0.78145280  0.68133497  0.17047250    -0.17300
C933        C  0.79859481  0.71452245  0.16275762    -0.27700
C934        C  0.79640112  0.74886747  0.18734290     0.18300
C935        C  0.73928165  0.71835409  0.25858588     0.12300
C936        C  0.74380467  0.64576000  0.20848821    -0.12000
H937        H  0.78282376  0.65523640  0.15145916     0.12600
C938        C  0.81199357  0.78723435  0.17978270    -0.22900
H939        H  0.77573645  0.77494173  0.23784484     0.08200
C940        C  0.74533856  0.70554282  0.29684417     0.04600
C941        C  0.72458090  0.70883610  0.32607306    -0.20100
C942        C  0.69782796  0.72527264  0.31833288    -0.12400
C943        C  0.69198926  0.73840388  0.27966420     0.13300
C944        C  0.71278506  0.73457680  0.25042232    -0.22800
C945        C  0.77385314  0.68889592  0.30692304    -0.05900
H946        H  0.72957984  0.69904026  0.35543192     0.14800
C947        C  0.66394189  0.75588768  0.26842727    -0.16100
H948        H  0.70841764  0.74440233  0.22085815     0.09100
H949        H  0.82633769  0.79382861  0.20471301     0.07000
H950        H  0.79663843  0.81206818  0.17725062     0.08200
H951        H  0.82445950  0.78679589  0.15240008     0.07200
H952        H  0.72136169  0.65462069  0.20621203     0.02100
H953        H  0.74770255  0.63343718  0.23805204     0.02600
H954        H  0.74786312  0.62173516  0.18647610     0.06100
H955        H  0.77520352  0.68043061  0.33826669     0.05100
H956        H  0.79028923  0.71163512  0.30120904    -0.00700
H957        H  0.77824562  0.66190939  0.28876719     0.00800
H958        H  0.66286289  0.76253996  0.23661891     0.04500
H959        H  0.66038170  0.78438265  0.28459860     0.06400
H960        H  0.64685521  0.73441939  0.27509103     0.07300
C961        C  0.51593186  0.19208602  0.78773643    -0.22400
C962        C  0.51413964  0.22447708  0.76242232     0.09600
C963        C  0.53209091  0.25750252  0.76787822     0.10000
C964        C  0.55141303  0.25753131  0.79901948    -0.17300
C965        C  0.55313201  0.22533963  0.82514584    -0.27700
C966        C  0.53511451  0.19190296  0.81901950     0.18300
C967        C  0.99367631  0.22253606  0.72975531     0.12300
C968        C  0.53074201  0.29271180  0.74087105    -0.12000
H969        H  0.56490952  0.28326706  0.80329365     0.12600
C970        C  0.53596995  0.15548955  0.84457195    -0.22900
H971        H  0.00215345  0.16672873  0.78285902     0.08200
C972        C  0.00082853  0.20452151  0.69365111     0.04600
C973        C  0.98082731  0.20300496  0.66352977    -0.20100
C974        C  0.95356807  0.21910035  0.66835206    -0.12400
C975        C  0.94636795  0.23666340  0.70524217     0.13300
C976        C  0.96660270  0.23807606  0.73535820    -0.22800
C977        C  0.02966671  0.18697889  0.68690058    -0.05900
H978        H  0.98678517  0.18917580  0.63585973     0.14800
C979        C  0.91777672  0.25441558  0.71343619    -0.16100
H980        H  0.46136902  0.25152940  0.76351417     0.09100
H981        H  0.05759099  0.14295126  0.84501263     0.07000
H982        H  0.52161959  0.13164985  0.83371956     0.08200
H983        H  0.52912758  0.16346061  0.87474275     0.07200
H984        H  0.50940443  0.30616545  0.74205526     0.02100
H985        H  0.53530794  0.28289479  0.71031414     0.02600
H986        H  0.54623986  0.31611304  0.74919809     0.06100
H987        H  0.03187941  0.17410268  0.65688431     0.05100
H988        H  0.03357908  0.16283298  0.70823925    -0.00700
H989        H  0.04591267  0.21048581  0.69072415     0.00800
H990        H  0.90133835  0.23106198  0.71038470     0.04500
H991        H  0.91355949  0.27914962  0.69286782     0.06400
H992        H  0.41625888  0.26688324  0.74370427     0.07300
C993        C  0.49977218  0.17779836  0.20386429    -0.22400
C994        C  0.49883709  0.20981732  0.23058703     0.09600
C995        C  0.51773822  0.24195003  0.22630001     0.10000
C996        C  0.53674454  0.24184396  0.19465747    -0.17300
C997        C  0.53705163  0.21052690  0.16688083    -0.27700
C998        C  0.51856065  0.17771148  0.17198570     0.18300
C999        C  0.97766494  0.20939867  0.26265424     0.12300
C1000       C  0.51750031  0.27659677  0.25485075    -0.12000
H1001       H  0.55086079  0.26691562  0.19093977     0.12600
C1002       C  0.51889844  0.14203292  0.14457787    -0.22900
H1003       H  0.98542110  0.15301499  0.20772754     0.08200
C1004       C  0.95028530  0.22453036  0.25726712     0.04600
C1005       C  0.93143580  0.22556260  0.28904867    -0.20100
C1006       C  0.93913232  0.21145150  0.32629752    -0.12400
C1007       C  0.96660087  0.19506043  0.33112220     0.13300
C1008       C  0.98538107  0.19442450  0.29921099    -0.22800
C1009       C  0.94109860  0.23997234  0.21798723    -0.05900
H1010       H  0.91056275  0.23773845  0.28469587     0.14800
C1011       C  0.97693338  0.17908347  0.36973765    -0.16100
H1012       H  0.50645977  0.18266197  0.30285585     0.09100
H1013       H  0.01175573  0.15070812  0.11491212     0.07000
H1014       H  0.50462152  0.11805936  0.15479839     0.08200
H1015       H  0.54049423  0.12947948  0.14282883     0.07200
H1016       H  0.52216247  0.26584585  0.28483078     0.02100
H1017       H  0.49649834  0.29110899  0.25479287     0.02600
H1018       H  0.53347114  0.29940225  0.24718368     0.06100
H1019       H  0.91904484  0.25092716  0.21870256     0.05100
H1020       H  0.94252850  0.21571516  0.19560452    -0.00700
H1021       H  0.95487282  0.26505991  0.20914797     0.00800
H1022       H  0.99914225  0.16887774  0.36796519     0.04500
H1023       H  0.96408328  0.15298539  0.37843938     0.06400
H1024       H  0.47583851  0.20279978  0.39271625     0.07300
C1025       C  0.71445952  0.27387794  0.77059175    -0.22400
C1026       C  0.74190383  0.28810721  0.77584294     0.09600
C1027       C  0.74987893  0.30446279  0.81236982     0.10000
C1028       C  0.73045208  0.30516065  0.84334465    -0.17300
C1029       C  0.70292541  0.28999437  0.83894069    -0.27700
C1030       C  0.69476875  0.27462147  0.80148647     0.18300
C1031       C  0.76220410  0.28526377  0.74285471     0.12300
C1032       C  0.77902548  0.32102146  0.81868413    -0.12000
H1033       H  0.73708372  0.31748417  0.87136699     0.12600
C1034       C  0.66571357  0.25842059  0.79343997    -0.22900
H1035       H  0.70856316  0.26169119  0.74216405     0.08200
C1036       C  0.77953364  0.25149747  0.73755482     0.04600
C1037       C  0.79910650  0.25063944  0.70666855    -0.20100
C1038       C  0.80160156  0.28258691  0.68041173    -0.12400
C1039       C  0.78395076  0.31655142  0.68594535     0.13300
C1040       C  0.76461897  0.31734661  0.71719319    -0.22800
C1041       C  0.77723397  0.21628850  0.76445023    -0.05900
H1042       H  0.81218907  0.22441936  0.70265306     0.14800
C1043       C  0.78548140  0.35254603  0.65985701    -0.16100
H1044       H  0.75126838  0.34322374  0.72178302     0.09100
H1045       H  0.66341594  0.24780091  0.76261679     0.07000
H1046       H  0.64977056  0.28217451  0.79842045     0.08200
H1047       H  0.66140546  0.23264856  0.81270528     0.07200
H1048       H  0.78284202  0.34584580  0.79806848     0.02100
H1049       H  0.79493118  0.29728638  0.81344737     0.02600
H1050       H  0.78189779  0.33273192  0.84903174     0.06100
H1051       H  0.79227073  0.19221950  0.75623122     0.05100
H1052       H  0.75562434  0.20379950  0.76297377    -0.00700
H1053       H  0.78179012  0.22578401  0.79509050     0.00800
H1054       H  0.77144875  0.37697635  0.67030591     0.04500
H1055       H  0.77867004  0.34444097  0.62968684     0.06400
H1056       H  0.80729871  0.36435554  0.65940129     0.07300
C1057       C  0.74527194  0.30807429  0.30614373    -0.22400
C1058       C  0.74918577  0.28115862  0.27502004     0.09600
C1059       C  0.77297959  0.25599153  0.27458988     0.10000
C1060       C  0.79184884  0.25720147  0.30636503    -0.17300
C1061       C  0.78742979  0.28305314  0.33862428    -0.27700
C1062       C  0.76400211  0.30956595  0.33791314     0.18300
C1063       C  0.72808480  0.28041998  0.24301983     0.12300
C1064       C  0.77827432  0.22774609  0.24070116    -0.12000
H1065       H  0.80973422  0.23713362  0.30640968     0.12600
C1066       C  0.75862586  0.34025041  0.36985564    -0.22900
H1067       H  0.72719529  0.32781696  0.30566548     0.08200
C1068       C  0.70396048  0.25611109  0.24477792     0.04600
C1069       C  0.68440992  0.25683157  0.21389892    -0.20100
C1070       C  0.68817183  0.28163681  0.18117829    -0.12400
C1071       C  0.71229471  0.30701252  0.18033988     0.13300
C1072       C  0.73181064  0.30581106  0.21124882    -0.22800
C1073       C  0.69888783  0.22942977  0.27932820    -0.05900
H1074       H  0.66616875  0.23753917  0.21535969     0.14800
C1075       C  0.71811694  0.33560746  0.14741400    -0.15700
H1076       H  0.75025073  0.32483596  0.21071710     0.09100
H1077       H  0.75272223  0.32539341  0.39757224     0.07000
H1078       H  0.74101903  0.36055398  0.36226056     0.08200
H1079       H  0.77767340  0.35890979  0.37442027     0.07200
H1080       H  0.78047412  0.24489298  0.21319957     0.02100
H1081       H  0.76041246  0.20661745  0.23761940     0.02600
H1082       H  0.79781066  0.21011356  0.24490878     0.06100
H1083       H  0.67901322  0.21227598  0.27617426     0.05100
H1084       H  0.69748500  0.24774042  0.30661717    -0.00700
H1085       H  0.71647101  0.20783583  0.28208685     0.00800
H1086       H  0.73751505  0.35335649  0.15266578     0.04500
H1087       H  0.70044155  0.35706770  0.14465569     0.06400
H1088       H  0.72121909  0.31886429  0.11945247     0.07300
C1089       C  0.50802181  0.94479539  0.98132511    -0.22400
C1090       C  0.99429467  0.97836458  0.99699184     0.09600
C1091       C  0.96851371  0.97409863  0.01685648     0.10000
C1092       C  0.95686040  0.93603870  0.02050326    -0.17300
C1093       C  0.97038699  0.90228443  0.00462438    -0.27700
C1094       C  0.99655374  0.90654178  0.98528072     0.18300
C1095       C  0.50786138  0.01766330  0.99405447     0.12300
C1096       C  0.95341834  0.00968310  0.03430338    -0.12000
H1097       H  0.93677676  0.93268142  0.03520649     0.12600
C1098       C  0.51353072  0.87164402  0.96999483    -0.22900
H1099       H  0.52811038  0.94842388  0.96669474     0.08200
C1100       C  0.52847748  0.02980343  0.02132906     0.04600
C1101       C  0.53974438  0.06824493  0.01887129    -0.20100
C1102       C  0.53084178  0.09463549  0.98974032    -0.12400
C1103       C  0.50983672  0.08254881  0.96269710     0.13300
C1104       C  0.99883151  0.04388052  0.96497750    -0.22800
C1105       C  0.53836881  0.00228632  0.05313538    -0.05900
H1106       H  0.55590790  0.07758793  0.03944822     0.14800
C1107       C  0.99762389  0.10992041  0.93235048    -0.16100
H1108       H  0.98258530  0.03440737  0.94458160     0.09100
H1109       H  0.53486789  0.87251826  0.98323660     0.07000
H1110       H  0.51559580  0.87364254  0.93763815     0.08200
H1111       H  0.00430304  0.84232255  0.97724705     0.07200
H1112       H  0.94803061  0.03104803  0.01083009     0.02100
H1113       H  0.96713130  0.02477242  0.05625930     0.02600
H1114       H  0.93360546  0.00092701  0.04918941     0.06100
H1115       H  0.55446442  0.01668509  0.07218903     0.05100
H1116       H  0.54782793  0.97503132  0.03980188    -0.00700
H1117       H  0.52030314  0.99364847  0.07186632     0.00800
H1118       H  0.00238640  0.09801152  0.90255164     0.04500
H1119       H  0.50562859  0.14085893  0.93477534     0.06400
H1120       H  0.97443341  0.11146369  0.93607327     0.07300
C1121       C  0.78063142  0.52704491  0.02728558    -0.22400
C1122       C  0.75957500  0.51670339  0.00046772     0.09600
C1123       C  0.75364455  0.54176000  0.96859117     0.10000
C1124       C  0.76898511  0.57714531  0.96436729    -0.17300
C1125       C  0.78988384  0.58790912  0.99152096    -0.27700
C1126       C  0.79624897  0.56207866  0.02295789     0.18300
C1127       C  0.74413217  0.47916841  0.00616227     0.12300
C1128       C  0.73108674  0.53115597  0.93926213    -0.12000
H1129       H  0.76431796  0.59684699  0.94021828     0.12600
C1130       C  0.81999246  0.56929652  0.05155033    -0.22900
H1131       H  0.78525098  0.50720297  0.05135707     0.08200
C1132       C  0.75435952  0.44269784  0.99096323     0.04600
C1133       C  0.73835269  0.40804147  0.99584657    -0.20100
C1134       C  0.71241056  0.40917991  0.01558896    -0.12400
C1135       C  0.70219300  0.44603481  0.03075906     0.13300
C1136       C  0.71852899  0.48044731  0.02634539    -0.22800
C1137       C  0.78198725  0.44053729  0.96935026    -0.05900
H1138       H  0.74608948  0.37988141  0.98412338     0.14800
C1139       C  0.67368652  0.45111728  0.04969721    -0.16100
H1140       H  0.71081708  0.50882279  0.03761797     0.09100
H1141       H  0.83405353  0.54281258  0.05170671     0.07000
H1142       H  0.81128838  0.57389140  0.08149710     0.08200
H1143       H  0.83332191  0.59517157  0.04416465     0.07200
H1144       H  0.71045369  0.52891110  0.95435246     0.02100
H1145       H  0.73609071  0.50208012  0.92494147     0.02600
H1146       H  0.72924160  0.55398363  0.91604246     0.06100
H1147       H  0.78679933  0.40966468  0.95918052     0.05100
H1148       H  0.79927083  0.45060472  0.98898549    -0.00700
H1149       H  0.78126407  0.46004269  0.94327335     0.00800
H1150       H  0.67637683  0.46055681  0.08079719     0.04500
H1151       H  0.66051989  0.42395462  0.04866526     0.06400
H1152       H  0.66175988  0.47462624  0.03411944     0.07300
loop_ 
_geom_bond_atom_site_label_1 
_geom_bond_atom_site_label_2 
_geom_bond_distance 
_geom_bond_site_symmetry_2 
_ccdc_geom_bond_type 
O1           Mg3   2.142   1_554  S
O1           Mg9   2.146       .  S
O1           C36   1.237       .  S
C2           O15   1.237       .  S
C2           O39   1.270       .  A
C2           H41   1.081       .  S
Mg3          O32   2.148       .  S
Mg3          O47   2.283       .  S
Mg3          O43   2.264       .  S
Mg3          O14   2.287       .  S
O4          Mg46   2.141       .  S
O4          Mg29   2.141       .  S
O4           C25   1.239       .  S
O5           C36   1.271       .  A
O5          Mg29   2.304       .  S
C6            O8   1.275       .  A
C6           O20   1.273       .  A
C6          C389   1.493       .  S
O7           C35   1.272   1_554  A
O7           Mg9   2.299       .  S
O8          Mg40   2.277       .  S
Mg9          O15   2.131       .  S
Mg9          O23   2.257       .  S
Mg9          O11   2.290       .  S
C10          O48   1.269       .  A
C10          O16   1.273   1_556  A
C10         C526   1.468       .  S
O11          C18   1.272       .  A
H12          C25   1.081       .  S
C13          O27   1.237       .  S
C13          O28   1.271       .  A
C13          H38   1.081       .  S
O14          C37   1.269       .  A
O15         Mg29   2.149       .  S
O16         Mg46   2.291       .  S
C17          O30   1.271       .  A
C17          O22   1.280       .  A
C17         C421   1.487       .  S
C18          O45   1.277       .  A
C18         C494   1.500       .  S
Mg19         O26   2.115       .  S
Mg19         O27   2.142       .  S
Mg19         O20   2.294       .  S
Mg19         O21   2.306       .  S
Mg19         O48   2.246       .  S
O21          C25   1.273   1_556  A
O22         Mg29   2.346       .  S
O23          C42   1.270       .  A
O24          C44   1.276       .  A
O24         Mg40   2.319       .  S
O26         Mg40   2.146       .  S
O26          C37   1.236       .  S
O27         Mg46   2.140   1_556  S
O28         Mg40   2.302       .  S
Mg29         O45   2.290       .  S
O30         Mg46   2.254       .  S
H31          C36   1.081       .  S
O32         Mg40   2.130       .  S
O32          C35   1.239       .  S
H33          C35   1.081       .  S
H34          C37   1.081       .  S
O39         Mg46   2.296       .  S
C42          O47   1.273   1_554  A
C42         C558   1.472       .  S
O43          C44   1.274       .  A
C44         C453   1.500       .  S
O49         Mg51   2.144   1_554  S
O49         Mg57   2.148       .  S
O49          C84   1.237       .  S
C50          O63   1.236       .  S
C50          O87   1.269       .  A
C50          H89   1.081       .  S
Mg51         O80   2.147       .  S
Mg51         O95   2.286       .  S
Mg51         O91   2.249       .  S
Mg51         O62   2.292       .  S
O52         Mg94   2.148       .  S
O52         Mg77   2.134       .  S
O52          C73   1.240       .  S
O53          C84   1.271       .  A
O53         Mg77   2.304       .  S
C54          O56   1.277       .  A
C54          O68   1.275       .  A
C54         C325   1.497       .  S
O55          C83   1.272       .  A
O55         Mg57   2.302   1_556  S
O56         Mg88   2.286       .  S
Mg57         O63   2.111       .  S
Mg57         O71   2.236       .  S
Mg57         O59   2.294       .  S
C58          O96   1.271       .  A
C58          O64   1.271   1_556  A
C58         C549   1.469       .  S
O59          C66   1.273       .  A
H60          C73   1.081       .  S
C61          O75   1.237       .  S
C61          O76   1.271       .  A
C61          H86   1.081       .  S
O62          C85   1.269       .  A
O63         Mg77   2.145       .  S
O64         Mg94   2.273       .  S
C65          O78   1.273       .  A
C65          O70   1.278       .  A
C65         C357   1.483       .  S
C66          O93   1.276       .  A
C66         C293   1.498       .  S
Mg67         O74   2.125       .  S
Mg67         O75   2.145       .  S
Mg67         O68   2.305       .  S
Mg67         O69   2.302       .  S
Mg67         O96   2.258       .  S
O69          C73   1.273   1_556  A
O70         Mg77   2.327       .  S
O71          C90   1.268       .  A
O72          C92   1.280       .  A
O72         Mg88   2.340       .  S
O74         Mg88   2.144       .  S
O74          C85   1.236       .  S
O75         Mg94   2.143   1_556  S
O76         Mg88   2.302       .  S
Mg77         O93   2.290       .  S
O78         Mg94   2.265       .  S
H79          C84   1.081       .  S
O80         Mg88   2.139       .  S
O80          C83   1.239       .  S
H81          C83   1.081       .  S
H82          C85   1.081       .  S
O87         Mg94   2.288       .  S
C90          O95   1.272   1_554  A
C90         C517   1.468       .  S
O91          C92   1.271       .  A
C92         C270   1.481       .  S
O97         Mg99   2.139       .  S
O97        Mg105   2.142       .  S
O97         C132   1.236       .  S
C98         O111   1.236       .  S
C98         O135   1.269       .  A
C98         H137   1.081       .  S
Mg99        O128   2.147       .  S
Mg99        O143   2.289       .  S
Mg99        O139   2.247       .  S
Mg99        O110   2.291       .  S
O100       Mg142   2.145       .  S
O100       Mg125   2.145       .  S
O100        C121   1.240       .  S
O101        C132   1.270       .  A
O101       Mg125   2.301       .  S
C102        O104   1.277       .  A
C102        O116   1.274       .  A
C102        C462   1.495       .  S
O103        C131   1.273       .  A
O103       Mg105   2.303       .  S
O104       Mg136   2.286       .  S
Mg105       O111   2.119       .  S
Mg105       O119   2.247       .  S
Mg105       O107   2.299       .  S
C106        O144   1.269       .  A
C106        O112   1.271       .  A
C106        C238   1.465       .  S
O107        C114   1.274       .  A
H108        C121   1.081       .  S
C109        O123   1.236       .  S
C109        O124   1.270       .  A
C109        H134   1.081       .  S
O110        C133   1.270       .  A
O111       Mg125   2.150       .  S
O112       Mg142   2.278       .  S
C113        O126   1.268       .  A
C113        O118   1.281       .  A
C113        C485   1.491       .  S
C114        O141   1.278       .  A
C114        C430   1.498       .  S
Mg115       O122   2.116       .  S
Mg115       O123   2.139       .  S
Mg115       O116   2.300       .  S
Mg115       O117   2.309       .  S
Mg115       O144   2.249       .  S
O117        C121   1.274       .  A
O118       Mg125   2.347       .  S
O119        C138   1.270       .  A
O120        C140   1.277       .  A
O120       Mg136   2.326       .  S
O122       Mg136   2.146       .  S
O122        C133   1.237       .  S
O123       Mg142   2.135       .  S
O124       Mg136   2.300       .  S
Mg125       O141   2.292       .  S
O126       Mg142   2.233       .  S
H127        C132   1.081       .  S
O128       Mg136   2.139       .  S
O128        C131   1.239       .  S
H129        C131   1.081       .  S
H130        C133   1.081       .  S
O135       Mg142   2.287       .  S
C138        O143   1.272       .  A
C138        C197   1.469       .  S
O139        C140   1.272       .  A
C140        C398   1.497       .  S
O145       Mg147   2.147       .  S
O145       Mg153   2.146       .  S
O145        C180   1.237       .  S
C146        O159   1.237       .  S
C146        O183   1.270       .  A
C146        H185   1.081       .  S
Mg147       O176   2.149       .  S
Mg147       O191   2.277       .  S
Mg147       O187   2.267       .  S
Mg147       O158   2.288       .  S
O148       Mg190   2.145       .  S
O148       Mg173   2.141       .  S
O148        C169   1.239       .  S
O149        C180   1.272       .  A
O149       Mg173   2.305       .  S
C150        O152   1.273       .  A
C150        O164   1.278       .  A
C150        C261   1.496       .  S
O151        C179   1.273       .  A
O151       Mg153   2.303       .  S
O152       Mg184   2.272       .  S
Mg153       O159   2.124       .  S
Mg153       O167   2.250       .  S
Mg153       O155   2.309       .  S
C154        O192   1.270       .  A
C154        O160   1.273       .  A
C154        C206   1.471       .  S
O155        C162   1.277       .  A
H156        C169   1.081       .  S
C157        O171   1.236       .  S
C157        O172   1.270       .  A
C157        H182   1.081       .  S
O158        C181   1.269       .  A
O159       Mg173   2.143       .  S
O160       Mg190   2.287       .  S
C161        O174   1.271       .  A
C161        O166   1.281       .  A
C161        C302   1.492       .  S
C162        O189   1.275       .  A
C162        C366   1.499       .  S
Mg163       O170   2.117       .  S
Mg163       O171   2.146       .  S
Mg163       O164   2.312       .  S
Mg163       O165   2.304       .  S
Mg163       O192   2.248       .  S
O165        C169   1.273       .  A
O166       Mg173   2.341       .  S
O167        C186   1.270       .  A
O168        C188   1.276       .  A
O168       Mg184   2.315       .  S
O170       Mg184   2.145       .  S
O170        C181   1.236       .  S
O171       Mg190   2.139       .  S
O172       Mg184   2.298       .  S
Mg173       O189   2.290       .  S
O174       Mg190   2.254       .  S
H175        C180   1.081       .  S
O176       Mg184   2.133       .  S
O176        C179   1.239       .  S
H177        C179   1.081       .  S
H178        C181   1.081       .  S
O183       Mg190   2.294       .  S
C186        O191   1.271       .  A
C186        C229   1.470       .  S
O187        C188   1.274       .  A
C188        C334   1.495       .  S
C193        H203   1.085   1_545  S
C193        C194   1.397       .  A
C193        C198   1.398       .  A
C194        C775   1.472   1_545  S
C194        C771   1.409       .  A
C195        C770   1.409   1_455  A
C195        C772   1.402   1_455  A
C195        C200   1.506       .  S
C196        H777   1.084       .  S
C196        C197   1.404       .  A
C196        C771   1.402       .  A
C197        C198   1.417       .  A
C198        C202   1.509       .  S
C199        C770   1.472   1_465  S
C199        C208   1.398       .  A
C199        C780   1.408       .  A
C200        H216   1.110       .  S
C200        H217   1.110       .  S
C200        H218   1.111       .  S
H201        C772   1.084       .  S
C202        H213   1.111       .  S
C202        H214   1.110       .  S
C202        H215   1.106       .  S
C204        C775   1.408       .  A
C204        C781   1.401       .  A
C204        C209   1.506       .  S
C205        H786   1.084       .  S
C205        C206   1.404       .  A
C205        C780   1.401       .  A
C206        C207   1.419       .  A
C207        C208   1.399       .  A
C207        C211   1.510       .  S
C208        H212   1.085       .  S
C209        H219   1.111       .  S
C209        H220   1.110       .  S
C209        H221   1.110       .  S
H210        C781   1.084       .  S
C211        H222   1.110       .  S
C211        H223   1.105       .  S
C211        H224   1.111       .  S
C225        H235   1.085       .  S
C225        C226   1.399       .  A
C225        C230   1.400       .  A
C226        C231   1.470       .  S
C226        C227   1.407       .  A
C227        C228   1.399       .  A
C227        C232   1.507       .  S
C228        H233   1.084       .  S
C228        C229   1.405       .  A
C229        C230   1.417       .  A
C230        C234   1.509       .  S
C231        C236   1.408       .  A
C231        C240   1.400       .  A
C232        H248   1.110       .  S
C232        H249   1.110       .  S
C232        H250   1.111       .  S
C234        H245   1.111       .  S
C234        H246   1.110       .  S
C234        H247   1.106       .  S
C236        C237   1.398       .  A
C236        C241   1.507       .  S
C237        H242   1.085       .  S
C237        C238   1.402       .  A
C238        C239   1.414       .  A
C239        C240   1.401       .  A
C239        C243   1.508       .  S
C240        H244   1.085       .  S
C241        H251   1.111       .  S
C241        H252   1.110       .  S
C241        H253   1.110       .  S
C243        H254   1.110       .  S
C243        H255   1.107       .  S
C243        H256   1.111       .  S
C257        H267   1.084       .  S
C257        C258   1.400       .  A
C257        C262   1.407       .  A
C258        C839   1.483   1_455  S
C258        C259   1.408       .  A
C259        C260   1.403       .  A
C259        C840   1.507   1_455  S
C260        H265   1.084       .  S
C260        C261   1.410       .  A
C261        C262   1.423       .  A
C262        C266   1.508       .  S
C263        C834   1.483       .  S
C263        C268   1.411       .  A
C263        C272   1.399       .  A
C264        C835   1.507       .  S
C264        H280   1.110       .  S
C264        H281   1.110       .  S
C264        H282   1.111       .  S
C266        H277   1.109       .  S
C266        H278   1.111       .  S
C266        H279   1.110       .  S
C268        C269   1.406       .  A
C268        C849   1.506       .  S
C269        H274   1.084       .  S
C269        C270   1.404       .  A
C270        C271   1.419       .  A
C271        C272   1.403       .  A
C271        C275   1.509       .  S
C272        H276   1.085       .  S
C273        C844   1.506       .  S
C273        H283   1.111       .  S
C273        H284   1.110   1_655  S
C273        H285   1.110       .  S
C275        H286   1.110       .  S
C275        H287   1.107       .  S
C275        H288   1.111       .  S
C289        H875   1.084       .  S
C289        C290   1.398       .  A
C289        C294   1.406       .  A
C290        C871   1.487       .  S
C290        C291   1.410       .  A
C291        C292   1.406       .  A
C291        C296   1.506       .  S
C292        H297   1.084       .  S
C292        C293   1.409       .  A
C293        C294   1.426       .  A
C294        C298   1.510       .  S
C295        C866   1.487   1_455  S
C295        C300   1.411       .  A
C295        C304   1.400       .  A
C296        H312   1.110       .  S
C296        H313   1.110       .  S
C296        H314   1.111       .  S
C298        H310   1.111       .  S
C298        H311   1.110       .  S
C298        H885   1.110       .  S
H299        C865   1.084   1_455  S
C300        C301   1.406       .  A
C300        C305   1.506       .  S
C301        H306   1.084       .  S
C301        C302   1.407       .  A
C302        C303   1.423       .  A
C303        C304   1.406       .  A
C303        C307   1.509       .  S
C304        H884   1.084   1_455  S
C305        H315   1.111       .  S
C305        H316   1.110       .  S
C305        H317   1.110       .  S
C307        H318   1.111       .  S
C307        H319   1.110       .  S
C307        H896   1.109       .  S
H308        C880   1.084       .  S
H309        C874   1.110       .  S
H320        C883   1.109       .  S
C321        H331   1.084       .  S
C321        C322   1.399       .  A
C321        C326   1.407       .  A
C322        C327   1.485       .  S
C322        C323   1.409       .  A
C323        C324   1.404       .  A
C323        C328   1.507       .  S
C324        H329   1.084       .  S
C324        C325   1.409       .  A
C325        C326   1.425       .  A
C326        C330   1.509       .  S
C327        C332   1.408       .  A
C327        C336   1.400       .  A
C328        H344   1.110       .  S
C328        H345   1.110       .  S
C328        H346   1.111       .  S
C330        H341   1.110       .  S
C330        H342   1.111       .  S
C330        H343   1.110       .  S
C332        C333   1.403       .  A
C332        C337   1.507       .  S
C333        H338   1.084       .  S
C333        C334   1.409       .  A
C334        C335   1.423       .  A
C335        C336   1.407       .  A
C335        C339   1.507       .  S
C336        H340   1.084       .  S
C337        H347   1.111       .  S
C337        H348   1.110       .  S
C337        H349   1.110       .  S
C339        H350   1.109       .  S
C339        H351   1.110       .  S
C339        H352   1.111       .  S
C353        H363   1.085       .  S
C353        C354   1.401       .  A
C353        C358   1.406       .  A
C354        C359   1.486       .  S
C354        C355   1.411       .  A
C355        C356   1.406       .  A
C355        C360   1.506       .  S
C356        H361   1.084       .  S
C356        C357   1.406       .  A
C357        C358   1.419       .  A
C358        C362   1.509       .  S
C359        C364   1.408       .  A
C359        C368   1.401       .  A
C360        H376   1.110       .  S
C360        H377   1.109       .  S
C360        H378   1.111       .  S
C362        H373   1.110       .  S
C362        H374   1.111       .  S
C362        H375   1.105       .  S
C364        C365   1.405       .  A
C364        C369   1.507       .  S
C365        H370   1.084       .  S
C365        C366   1.412       .  A
C366        C367   1.422       .  A
C367        C368   1.408       .  A
C367        C371   1.507       .  S
C368        H372   1.084       .  S
C369        H379   1.111       .  S
C369        H380   1.110       .  S
C369        H381   1.109       .  S
C371        H382   1.111       .  S
C371        H383   1.110       .  S
C371        H384   1.110       .  S
C385        H971   1.084       .  S
C385        C386   1.397       .  A
C385        C390   1.404       .  A
C386        C967   1.480   1_455  S
C386        C387   1.408       .  A
C387        C388   1.404       .  A
C387        C392   1.506       .  S
C388        H393   1.084       .  S
C388        C389   1.409       .  A
C389        C390   1.424       .  A
C390        C394   1.508       .  S
C391        C962   1.480       .  S
C391        C396   1.406       .  A
C391        C400   1.400       .  A
C392        H408   1.110       .  S
C392        H409   1.110       .  S
C392        H410   1.111       .  S
C394        H406   1.111       .  S
C394        H407   1.108       .  S
C394        H981   1.110       .  S
H395        C961   1.084       .  S
C396        C397   1.400       .  A
C396        C401   1.508       .  S
C397        H402   1.083       .  S
C397        C398   1.412       .  A
C398        C399   1.424       .  A
C399        C400   1.408       .  A
C399        C403   1.508       .  S
C400        H980   1.084       .  S
C401        H411   1.111       .  S
C401        H412   1.110       .  S
C401        H413   1.110       .  S
C403        H414   1.110       .  S
C403        H415   1.110       .  S
C403        H992   1.111       .  S
H404        C976   1.084       .  S
H405        C970   1.110       .  S
H416        C979   1.111       .  S
C417       H1003   1.084       .  S
C417        C418   1.400       .  A
C417        C422   1.406   1_655  A
C418        C999   1.486       .  S
C418        C419   1.411   1_655  A
C419        C420   1.407       .  A
C419        C424   1.506       .  S
C420        H425   1.084       .  S
C420        C421   1.405       .  A
C421        C422   1.420       .  A
C422        C426   1.509       .  S
C423        C994   1.486       .  S
C423        C428   1.409       .  A
C423        C432   1.398       .  A
C424        H440   1.110       .  S
C424        H441   1.110   1_455  S
C424        H442   1.111       .  S
C426        H438   1.111       .  S
C426        H439   1.110       .  S
C426       H1013   1.109       .  S
H427        C993   1.084       .  S
C428        C429   1.406       .  A
C428        C433   1.506       .  S
C429        H434   1.084       .  S
C429        C430   1.409       .  A
C430        C431   1.427       .  A
C431        C432   1.407       .  A
C431        C435   1.509       .  S
C432       H1012   1.084       .  S
C433        H443   1.111       .  S
C433        H444   1.110       .  S
C433        H445   1.110       .  S
C435        H446   1.111       .  S
C435        H447   1.110       .  S
C435       H1024   1.110       .  S
H436       C1008   1.084   1_455  S
H437       C1002   1.109       .  S
H448       C1011   1.110       .  S
C449        H459   1.084       .  S
C449        C450   1.400       .  A
C449        C454   1.409       .  A
C450        C455   1.484       .  S
C450        C451   1.407       .  A
C451        C452   1.402       .  A
C451        C456   1.507       .  S
C452        H457   1.083       .  S
C452        C453   1.411       .  A
C453        C454   1.425       .  A
C454        C458   1.508       .  S
C455        C460   1.409       .  A
C455        C464   1.399       .  A
C456        H472   1.110       .  S
C456        H473   1.110       .  S
C456        H474   1.111       .  S
C458        H469   1.111       .  S
C458        H470   1.110       .  S
C458        H471   1.110       .  S
C460        C461   1.405       .  A
C460        C465   1.507       .  S
C461        H466   1.083       .  S
C461        C462   1.409       .  A
C462        C463   1.424       .  A
C463        C464   1.406       .  A
C463        C467   1.509       .  S
C464        H468   1.084       .  S
C465        H475   1.111       .  S
C465        H476   1.110       .  S
C465        H477   1.110       .  S
C467        H478   1.111       .  S
C467        H479   1.109       .  S
C467        H480   1.110       .  S
C481        H491   1.084       .  S
C481        C482   1.397       .  A
C481        C486   1.403       .  A
C482        C487   1.482       .  S
C482        C483   1.410       .  A
C483        C484   1.407       .  A
C483        C488   1.506       .  S
C484        H489   1.084       .  S
C484        C485   1.407       .  A
C485        C486   1.425       .  A
C486        C490   1.510       .  S
C487        C492   1.409       .  A
C487        C496   1.396       .  A
C488        H504   1.110       .  S
C488        H505   1.110       .  S
C488        H506   1.111       .  S
C490        H501   1.109       .  S
C490        H502   1.111       .  S
C490        H503   1.111       .  S
C492        C493   1.405       .  A
C492        C497   1.506       .  S
C493        H498   1.083       .  S
C493        C494   1.410       .  A
C494        C495   1.428       .  A
C495        C496   1.405       .  A
C495        C499   1.510       .  S
C496        H500   1.084       .  S
C497        H507   1.111       .  S
C497        H508   1.110       .  S
C497        H509   1.110       .  S
C499        H510   1.111       .  S
C499        H511   1.110       .  S
C499        H512   1.110       .  S
C513        H523   1.085       .  S
C513       C1090   1.400   1_455  A
C513       C1094   1.401   1_455  A
C514       C1095   1.471   1_565  S
C514        C515   1.408   1_556  A
C514       C1089   1.400       .  A
C515        C516   1.397       .  A
C515        C520   1.507   1_565  S
C516        H521   1.084       .  S
C516        C517   1.403       .  A
C517        C518   1.415   1_554  A
C518       C1089   1.401       .  A
C518       C1098   1.508       .  S
C519       C1090   1.471   1_445  S
C519        C524   1.408   1_556  A
C519       C1104   1.400   1_455  A
C520        H536   1.110       .  S
C520        H537   1.110       .  S
C520        H538   1.111       .  S
C522       C1094   1.508   1_455  S
C522        H533   1.111       .  S
C522        H534   1.110       .  S
C522       H1111   1.107       .  S
C524        C525   1.399       .  A
C524        C529   1.507       .  S
C525        H530   1.084       .  S
C525        C526   1.403   1_554  A
C526        C527   1.416       .  A
C527       C1104   1.400   1_455  A
C527       C1107   1.507   1_455  S
C528        H532   1.085       .  S
C528       C1095   1.400       .  A
C528       C1103   1.400       .  A
C529        H539   1.111       .  S
C529        H540   1.110   1_545  S
C529        H541   1.110   1_545  S
C531       C1103   1.507       .  S
C531        H542   1.110       .  S
C531        H544   1.111       .  S
C531       H1119   1.107       .  S
H535       C1098   1.107       .  S
H543       C1107   1.107   1_455  S
C545        H555   1.085       .  S
C545        C546   1.397       .  A
C545        C550   1.398       .  A
C546        C551   1.471       .  S
C546        C547   1.410   1_554  A
C547        C548   1.401       .  A
C547        C552   1.506       .  S
C548        H553   1.084       .  S
C548        C549   1.403       .  A
C549        C550   1.418   1_556  A
C550        C554   1.510       .  S
C551        C556   1.408   1_554  A
C551        C560   1.398       .  A
C552        H568   1.110       .  S
C552        H569   1.110       .  S
C552        H570   1.111       .  S
C554        H565   1.111       .  S
C554        H566   1.110       .  S
C554        H567   1.105       .  S
C556        C557   1.400       .  A
C556        C561   1.507       .  S
C557        H562   1.084       .  S
C557        C558   1.405   1_556  A
C558        C559   1.418       .  A
C559        C560   1.400       .  A
C559        C563   1.509       .  S
C560        H564   1.085       .  S
C561        H571   1.111       .  S
C561        H572   1.110       .  S
C561        H573   1.110       .  S
C563        H574   1.110       .  S
C563        H575   1.105       .  S
C563        H576   1.111       .  S
O577       Mg579   2.142   1_554  S
O577       Mg585   2.146       .  S
O577        C612   1.237       .  S
C578        O591   1.237       .  S
C578        O615   1.270       .  A
C578        H617   1.081       .  S
Mg579       O608   2.148       .  S
Mg579       O623   2.283       .  S
Mg579       O619   2.264       .  S
Mg579       O590   2.287       .  S
O580       Mg622   2.141       .  S
O580       Mg605   2.141       .  S
O580        C601   1.239       .  S
O581        C612   1.271       .  A
O581       Mg605   2.304       .  S
C582        O584   1.275       .  A
C582        O596   1.273       .  A
C582        C965   1.493       .  S
O583        C611   1.272   1_554  A
O583       Mg585   2.299       .  S
O584       Mg616   2.277       .  S
Mg585       O591   2.131       .  S
Mg585       O599   2.257       .  S
Mg585       O587   2.290       .  S
C586        O624   1.269       .  A
C586        O592   1.273   1_556  A
C586       C1102   1.468       .  S
O587        C594   1.272       .  A
H588        C601   1.081       .  S
C589        O603   1.237       .  S
C589        O604   1.271       .  A
C589        H614   1.081       .  S
O590        C613   1.269       .  A
O591       Mg605   2.149       .  S
O592       Mg622   2.291       .  S
C593        O606   1.271       .  A
C593        O598   1.280       .  A
C593        C997   1.487       .  S
C594        O621   1.277       .  A
C594       C1070   1.500       .  S
Mg595       O602   2.115       .  S
Mg595       O603   2.142       .  S
Mg595       O596   2.294       .  S
Mg595       O597   2.306       .  S
Mg595       O624   2.246       .  S
O597        C601   1.273   1_556  A
O598       Mg605   2.346       .  S
O599        C618   1.270       .  A
O600        C620   1.276       .  A
O600       Mg616   2.319       .  S
O602       Mg616   2.146       .  S
O602        C613   1.236       .  S
O603       Mg622   2.140   1_556  S
O604       Mg616   2.302       .  S
Mg605       O621   2.290       .  S
O606       Mg622   2.254       .  S
H607        C612   1.081       .  S
O608       Mg616   2.130       .  S
O608        C611   1.239       .  S
H609        C611   1.081       .  S
H610        C613   1.081       .  S
O615       Mg622   2.296       .  S
C618        O623   1.273   1_554  A
C618       C1134   1.472       .  S
O619        C620   1.274       .  A
C620       C1029   1.500       .  S
O625       Mg627   2.144   1_554  S
O625       Mg633   2.148       .  S
O625        C660   1.237       .  S
C626        O639   1.236       .  S
C626        O663   1.269       .  A
C626        H665   1.081       .  S
Mg627       O656   2.147       .  S
Mg627       O671   2.286       .  S
Mg627       O667   2.249       .  S
Mg627       O638   2.292       .  S
O628       Mg670   2.148       .  S
O628       Mg653   2.134       .  S
O628        C649   1.240       .  S
O629        C660   1.271       .  A
O629       Mg653   2.303       .  S
C630        O632   1.277       .  A
C630        O644   1.275       .  A
C630        C901   1.497       .  S
O631        C659   1.272       .  A
O631       Mg633   2.302   1_556  S
O632       Mg664   2.286       .  S
Mg633       O639   2.111       .  S
Mg633       O647   2.236       .  S
Mg633       O635   2.294       .  S
C634        O672   1.271       .  A
C634        O640   1.271   1_556  A
C634       C1125   1.469       .  S
O635        C642   1.273       .  A
H636        C649   1.081       .  S
C637        O651   1.237       .  S
C637        O652   1.271       .  A
C637        H662   1.081       .  S
O638        C661   1.269       .  A
O639       Mg653   2.145       .  S
O640       Mg670   2.273       .  S
C641        O654   1.273       .  A
C641        O646   1.278       .  A
C641        C933   1.483       .  S
C642        O669   1.276       .  A
C642        C869   1.498       .  S
Mg643       O650   2.125       .  S
Mg643       O651   2.145       .  S
Mg643       O644   2.305       .  S
Mg643       O645   2.302       .  S
Mg643       O672   2.258       .  S
O645        C649   1.273   1_556  A
O646       Mg653   2.327       .  S
O647        C666   1.268       .  A
O648        C668   1.280       .  A
O648       Mg664   2.340       .  S
O650       Mg664   2.144       .  S
O650        C661   1.236       .  S
O651       Mg670   2.143   1_556  S
O652       Mg664   2.302       .  S
Mg653       O669   2.290       .  S
O654       Mg670   2.265       .  S
H655        C660   1.081       .  S
O656       Mg664   2.139       .  S
O656        C659   1.239       .  S
H657        C659   1.081       .  S
H658        C661   1.081       .  S
O663       Mg670   2.288       .  S
C666        O671   1.272   1_554  A
C666       C1093   1.468       .  S
O667        C668   1.271       .  A
C668        C846   1.481       .  S
O673       Mg675   2.139       .  S
O673       Mg681   2.142       .  S
O673        C708   1.236       .  S
C674        O687   1.236       .  S
C674        O711   1.269       .  A
C674        H713   1.081       .  S
Mg675       O704   2.147       .  S
Mg675       O719   2.289       .  S
Mg675       O715   2.247       .  S
Mg675       O686   2.291       .  S
O676       Mg718   2.145       .  S
O676       Mg701   2.145       .  S
O676        C697   1.240       .  S
O677        C708   1.270       .  A
O677       Mg701   2.301       .  S
C678        O680   1.277       .  A
C678        O692   1.274       .  A
C678       C1038   1.495       .  S
O679        C707   1.273       .  A
O679       Mg681   2.303       .  S
O680       Mg712   2.286       .  S
Mg681       O687   2.119       .  S
Mg681       O695   2.247       .  S
Mg681       O683   2.299       .  S
C682        O720   1.269       .  A
C682        O688   1.271       .  A
C682        C814   1.465       .  S
O683        C690   1.274       .  A
H684        C697   1.081       .  S
C685        O699   1.236       .  S
C685        O700   1.270       .  A
C685        H710   1.081       .  S
O686        C709   1.270       .  A
O687       Mg701   2.150       .  S
O688       Mg718   2.278       .  S
C689        O702   1.268       .  A
C689        O694   1.281       .  A
C689       C1061   1.491       .  S
C690        O717   1.278       .  A
C690       C1006   1.498       .  S
Mg691       O698   2.116       .  S
Mg691       O699   2.139       .  S
Mg691       O692   2.300       .  S
Mg691       O693   2.309       .  S
Mg691       O720   2.249       .  S
O693        C697   1.274       .  A
O694       Mg701   2.347       .  S
O695        C714   1.270       .  A
O696        C716   1.277       .  A
O696       Mg712   2.326       .  S
O698       Mg712   2.146       .  S
O698        C709   1.237       .  S
O699       Mg718   2.135       .  S
O700       Mg712   2.300       .  S
Mg701       O717   2.292       .  S
O702       Mg718   2.233       .  S
H703        C708   1.081       .  S
O704       Mg712   2.139       .  S
O704        C707   1.239       .  S
H705        C707   1.081       .  S
H706        C709   1.081       .  S
O711       Mg718   2.287       .  S
C714        O719   1.272       .  A
C714        C773   1.469       .  S
O715        C716   1.272       .  A
C716        C974   1.497       .  S
O721       Mg723   2.147       .  S
O721       Mg729   2.146       .  S
O721        C756   1.237       .  S
C722        O735   1.237       .  S
C722        O759   1.270       .  A
C722        H761   1.081       .  S
Mg723       O752   2.149       .  S
Mg723       O767   2.277       .  S
Mg723       O763   2.267       .  S
Mg723       O734   2.288       .  S
O724       Mg766   2.145       .  S
O724       Mg749   2.141       .  S
O724        C745   1.239       .  S
O725        C756   1.272       .  A
O725       Mg749   2.305       .  S
C726        O728   1.273       .  A
C726        O740   1.278       .  A
C726        C837   1.496       .  S
O727        C755   1.273       .  A
O727       Mg729   2.303       .  S
O728       Mg760   2.272       .  S
Mg729       O735   2.124       .  S
Mg729       O743   2.250       .  S
Mg729       O731   2.309       .  S
C730        O768   1.270       .  A
C730        O736   1.273       .  A
C730        C782   1.471       .  S
O731        C738   1.277       .  A
H732        C745   1.081       .  S
C733        O747   1.236       .  S
C733        O748   1.270       .  A
C733        H758   1.081       .  S
O734        C757   1.269       .  A
O735       Mg749   2.143       .  S
O736       Mg766   2.287       .  S
C737        O750   1.271       .  A
C737        O742   1.281       .  A
C737        C878   1.492       .  S
C738        O765   1.275       .  A
C738        C942   1.499       .  S
Mg739       O746   2.117       .  S
Mg739       O747   2.146       .  S
Mg739       O740   2.312       .  S
Mg739       O741   2.304       .  S
Mg739       O768   2.248       .  S
O741        C745   1.273       .  A
O742       Mg749   2.341       .  S
O743        C762   1.270       .  A
O744        C764   1.276       .  A
O744       Mg760   2.315       .  S
O746       Mg760   2.145       .  S
O746        C757   1.236       .  S
O747       Mg766   2.139       .  S
O748       Mg760   2.298       .  S
Mg749       O765   2.290       .  S
O750       Mg766   2.254       .  S
H751        C756   1.081       .  S
O752       Mg760   2.133       .  S
O752        C755   1.239       .  S
H753        C755   1.081       .  S
H754        C757   1.081       .  S
O759       Mg766   2.294       .  S
C762        O767   1.271       .  A
C762        C805   1.470       .  S
O763        C764   1.274       .  A
C764        C910   1.495       .  S
C769        H779   1.085   1_545  S
C769        C770   1.397       .  A
C769        C774   1.398       .  A
C771        C776   1.506       .  S
C772        C773   1.404       .  A
C773        C774   1.417       .  A
C774        C778   1.509       .  S
C775        C784   1.398       .  A
C776        H792   1.110       .  S
C776        H793   1.110       .  S
C776        H794   1.111       .  S
C778        H789   1.111       .  S
C778        H790   1.110       .  S
C778        H791   1.106       .  S
C780        C785   1.506   1_455  S
C781        C782   1.404       .  A
C782        C783   1.419       .  A
C783        C784   1.399       .  A
C783        C787   1.510       .  S
C784        H788   1.085       .  S
C785        H795   1.111       .  S
C785        H796   1.110       .  S
C785        H797   1.110       .  S
C787        H798   1.110       .  S
C787        H799   1.105       .  S
C787        H800   1.111       .  S
C801        H811   1.085       .  S
C801        C802   1.399       .  A
C801        C806   1.400       .  A
C802        C807   1.470       .  S
C802        C803   1.407       .  A
C803        C804   1.399       .  A
C803        C808   1.507       .  S
C804        H809   1.084       .  S
C804        C805   1.405       .  A
C805        C806   1.417       .  A
C806        C810   1.509       .  S
C807        C812   1.408       .  A
C807        C816   1.400       .  A
C808        H824   1.110       .  S
C808        H825   1.110       .  S
C808        H826   1.111       .  S
C810        H821   1.111       .  S
C810        H822   1.110       .  S
C810        H823   1.106       .  S
C812        C813   1.398       .  A
C812        C817   1.507       .  S
C813        H818   1.085       .  S
C813        C814   1.402       .  A
C814        C815   1.414       .  A
C815        C816   1.401       .  A
C815        C819   1.508       .  S
C816        H820   1.085       .  S
C817        H827   1.111       .  S
C817        H828   1.110       .  S
C817        H829   1.110       .  S
C819        H830   1.110       .  S
C819        H831   1.107       .  S
C819        H832   1.111       .  S
C833        H843   1.084       .  S
C833        C834   1.400       .  A
C833        C838   1.407       .  A
C834        C835   1.408       .  A
C835        C836   1.403       .  A
C836        H841   1.084       .  S
C836        C837   1.410       .  A
C837        C838   1.423       .  A
C838        C842   1.508       .  S
C839        C844   1.411       .  A
C839        C848   1.399       .  A
C840        H856   1.110       .  S
C840        H857   1.110       .  S
C840        H858   1.111       .  S
C842        H853   1.109       .  S
C842        H854   1.111       .  S
C842        H855   1.110       .  S
C844        C845   1.406       .  A
C845        H850   1.084       .  S
C845        C846   1.404       .  A
C846        C847   1.419       .  A
C847        C848   1.403       .  A
C847        C851   1.509       .  S
C848        H852   1.085   1_655  S
C849        H859   1.111       .  S
C849        H860   1.110       .  S
C849        H861   1.110       .  S
C851        H862   1.110       .  S
C851        H863   1.107       .  S
C851        H864   1.111       .  S
C865        C866   1.398       .  A
C865        C870   1.406       .  A
C866        C867   1.410       .  A
C867        C868   1.406       .  A
C867        C872   1.506       .  S
C868        H873   1.084       .  S
C868        C869   1.409       .  A
C869        C870   1.426       .  A
C870        C874   1.510       .  S
C871        C876   1.411       .  A
C871        C880   1.400       .  A
C872        H888   1.110       .  S
C872        H889   1.110       .  S
C872        H890   1.111       .  S
C874        H886   1.111   1_655  S
C874        H887   1.110       .  S
C876        C877   1.406       .  A
C876        C881   1.506       .  S
C877        H882   1.084       .  S
C877        C878   1.407       .  A
C878        C879   1.423       .  A
C879        C880   1.406       .  A
C879        C883   1.509       .  S
C881        H891   1.111       .  S
C881        H892   1.110       .  S
C881        H893   1.110       .  S
C883        H894   1.111       .  S
C883        H895   1.110       .  S
C897        H907   1.084       .  S
C897        C898   1.399       .  A
C897        C902   1.407       .  A
C898        C903   1.485       .  S
C898        C899   1.409       .  A
C899        C900   1.404       .  A
C899        C904   1.507       .  S
C900        H905   1.084       .  S
C900        C901   1.409       .  A
C901        C902   1.425       .  A
C902        C906   1.509       .  S
C903        C908   1.408       .  A
C903        C912   1.400       .  A
C904        H920   1.110       .  S
C904        H921   1.110       .  S
C904        H922   1.111       .  S
C906        H917   1.110       .  S
C906        H918   1.111       .  S
C906        H919   1.110       .  S
C908        C909   1.403       .  A
C908        C913   1.507       .  S
C909        H914   1.084       .  S
C909        C910   1.409       .  A
C910        C911   1.423       .  A
C911        C912   1.407       .  A
C911        C915   1.507       .  S
C912        H916   1.084       .  S
C913        H923   1.111       .  S
C913        H924   1.110       .  S
C913        H925   1.110       .  S
C915        H926   1.109       .  S
C915        H927   1.110       .  S
C915        H928   1.111       .  S
C929        H939   1.085       .  S
C929        C930   1.401       .  A
C929        C934   1.406       .  A
C930        C935   1.486       .  S
C930        C931   1.411       .  A
C931        C932   1.406       .  A
C931        C936   1.506       .  S
C932        H937   1.084       .  S
C932        C933   1.406       .  A
C933        C934   1.419       .  A
C934        C938   1.509       .  S
C935        C940   1.408       .  A
C935        C944   1.401       .  A
C936        H952   1.110       .  S
C936        H953   1.109       .  S
C936        H954   1.111       .  S
C938        H949   1.110       .  S
C938        H950   1.111       .  S
C938        H951   1.105       .  S
C940        C941   1.405       .  A
C940        C945   1.507       .  S
C941        H946   1.084       .  S
C941        C942   1.412       .  A
C942        C943   1.422       .  A
C943        C944   1.408       .  A
C943        C947   1.507       .  S
C944        H948   1.084       .  S
C945        H955   1.111       .  S
C945        H956   1.110       .  S
C945        H957   1.109       .  S
C947        H958   1.111       .  S
C947        H959   1.110       .  S
C947        H960   1.110       .  S
C961        C962   1.397       .  A
C961        C966   1.404       .  A
C962        C963   1.408       .  A
C963        C964   1.404       .  A
C963        C968   1.506       .  S
C964        H969   1.084       .  S
C964        C965   1.409       .  A
C965        C966   1.424       .  A
C966        C970   1.508       .  S
C967        C972   1.406   1_655  A
C967        C976   1.400       .  A
C968        H984   1.110       .  S
C968        H985   1.110       .  S
C968        H986   1.111       .  S
C970        H982   1.111       .  S
C970        H983   1.108       .  S
C972        C973   1.400   1_455  A
C972        C977   1.508       .  S
C973        H978   1.083       .  S
C973        C974   1.412       .  A
C974        C975   1.424       .  A
C975        C976   1.408       .  A
C975        C979   1.508       .  S
C977        H987   1.111       .  S
C977        H988   1.110       .  S
C977        H989   1.110       .  S
C979        H990   1.110       .  S
C979        H991   1.110       .  S
C993        C994   1.400       .  A
C993        C998   1.406       .  A
C994        C995   1.411       .  A
C995        C996   1.407       .  A
C995       C1000   1.506       .  S
C996       H1001   1.084       .  S
C996        C997   1.405       .  A
C997        C998   1.420       .  A
C998       C1002   1.509       .  S
C999       C1004   1.409       .  A
C999       C1008   1.398       .  A
C1000      H1016   1.110       .  S
C1000      H1017   1.110       .  S
C1000      H1018   1.111       .  S
C1002      H1014   1.111       .  S
C1002      H1015   1.110       .  S
C1004      C1005   1.406       .  A
C1004      C1009   1.506       .  S
C1005      H1010   1.084       .  S
C1005      C1006   1.409       .  A
C1006      C1007   1.427       .  A
C1007      C1008   1.407       .  A
C1007      C1011   1.509       .  S
C1009      H1019   1.111       .  S
C1009      H1020   1.110       .  S
C1009      H1021   1.110       .  S
C1011      H1022   1.111       .  S
C1011      H1023   1.110       .  S
C1025      H1035   1.084       .  S
C1025      C1026   1.400       .  A
C1025      C1030   1.409       .  A
C1026      C1031   1.484       .  S
C1026      C1027   1.407       .  A
C1027      C1028   1.402       .  A
C1027      C1032   1.507       .  S
C1028      H1033   1.083       .  S
C1028      C1029   1.411       .  A
C1029      C1030   1.425       .  A
C1030      C1034   1.508       .  S
C1031      C1036   1.409       .  A
C1031      C1040   1.399       .  A
C1032      H1048   1.110       .  S
C1032      H1049   1.110       .  S
C1032      H1050   1.111       .  S
C1034      H1045   1.111       .  S
C1034      H1046   1.110       .  S
C1034      H1047   1.110       .  S
C1036      C1037   1.405       .  A
C1036      C1041   1.507       .  S
C1037      H1042   1.083       .  S
C1037      C1038   1.409       .  A
C1038      C1039   1.424       .  A
C1039      C1040   1.406       .  A
C1039      C1043   1.509       .  S
C1040      H1044   1.084       .  S
C1041      H1051   1.111       .  S
C1041      H1052   1.110       .  S
C1041      H1053   1.110       .  S
C1043      H1054   1.111       .  S
C1043      H1055   1.109       .  S
C1043      H1056   1.110       .  S
C1057      H1067   1.084       .  S
C1057      C1058   1.397       .  A
C1057      C1062   1.403       .  A
C1058      C1063   1.482       .  S
C1058      C1059   1.410       .  A
C1059      C1060   1.407       .  A
C1059      C1064   1.506       .  S
C1060      H1065   1.084       .  S
C1060      C1061   1.407       .  A
C1061      C1062   1.425       .  A
C1062      C1066   1.510       .  S
C1063      C1068   1.409       .  A
C1063      C1072   1.396       .  A
C1064      H1080   1.110       .  S
C1064      H1081   1.110       .  S
C1064      H1082   1.111       .  S
C1066      H1077   1.109       .  S
C1066      H1078   1.111       .  S
C1066      H1079   1.111       .  S
C1068      C1069   1.405       .  A
C1068      C1073   1.507       .  S
C1069      H1074   1.083       .  S
C1069      C1070   1.410       .  A
C1070      C1071   1.428       .  A
C1071      C1072   1.405       .  A
C1071      C1075   1.510       .  S
C1072      H1076   1.084       .  S
C1073      H1083   1.111       .  S
C1073      H1084   1.110       .  S
C1073      H1085   1.110       .  S
C1075      H1086   1.111       .  S
C1075      H1087   1.110       .  S
C1075      H1088   1.110       .  S
C1089      H1099   1.085       .  S
C1090      C1091   1.408   1_556  A
C1091      C1092   1.397       .  A
C1091      C1096   1.507   1_565  S
C1092      H1097   1.084       .  S
C1092      C1093   1.403       .  A
C1093      C1094   1.415   1_554  A
C1095      C1100   1.408   1_556  A
C1096      H1112   1.110       .  S
C1096      H1113   1.110       .  S
C1096      H1114   1.111       .  S
C1098      H1109   1.111       .  S
C1098      H1110   1.110       .  S
C1100      C1101   1.399       .  A
C1100      C1105   1.507       .  S
C1101      H1106   1.085       .  S
C1101      C1102   1.403   1_554  A
C1102      C1103   1.416       .  A
C1104      H1108   1.085       .  S
C1105      H1115   1.111       .  S
C1105      H1116   1.110   1_545  S
C1105      H1117   1.110   1_545  S
C1107      H1118   1.110   1_655  S
C1107      H1120   1.111       .  S
C1121      H1131   1.085       .  S
C1121      C1122   1.397       .  A
C1121      C1126   1.398       .  A
C1122      C1127   1.471       .  S
C1122      C1123   1.410   1_554  A
C1123      C1124   1.401       .  A
C1123      C1128   1.506       .  S
C1124      H1129   1.084       .  S
C1124      C1125   1.403       .  A
C1125      C1126   1.418   1_556  A
C1126      C1130   1.509       .  S
C1127      C1132   1.408   1_554  A
C1127      C1136   1.398       .  A
C1128      H1144   1.110       .  S
C1128      H1145   1.110       .  S
C1128      H1146   1.111       .  S
C1130      H1141   1.111       .  S
C1130      H1142   1.110       .  S
C1130      H1143   1.105       .  S
C1132      C1133   1.400       .  A
C1132      C1137   1.507       .  S
C1133      H1138   1.084       .  S
C1133      C1134   1.405   1_556  A
C1134      C1135   1.418       .  A
C1135      C1136   1.400       .  A
C1135      C1139   1.509       .  S
C1136      H1140   1.085       .  S
C1137      H1147   1.111       .  S
C1137      H1148   1.110       .  S
C1137      H1149   1.110       .  S
C1139      H1150   1.110       .  S
C1139      H1151   1.105       .  S
C1139      H1152   1.111       .  S
