geometry optimzed in LAMMPS
_audit_creation_date              2020-12-01 
_audit_creation_method            'lammps2cif' 
_symmetry_space_group_name_H-M    'P1' 
_symmetry_Int_Tables_number       1 
_symmetry_cell_setting            triclinic 
loop_ 
_symmetry_equiv_pos_as_xyz 
  x,y,z 
_cell_length_a                    31.44143497 
_cell_length_b                    31.434288751128594 
_cell_length_c                    31.434214637191104 
_cell_angle_alpha                 89.99824907056235 
_cell_angle_beta                  90.00072453129879 
_cell_angle_gamma                 90.00048551684786 
loop_ 
_atom_site_label 
_atom_site_type_symbol 
_atom_site_fract_x 
_atom_site_fract_y 
_atom_site_fract_z 
_atom_site_charge 
O1          O  0.91278034  0.54252225  0.85224211    -0.68600
O2          O  0.85222198  0.45733087  0.91276017    -0.68800
O3          O  0.91277132  0.45731999  0.85225472    -0.68700
O4          O  0.85223079  0.54253357  0.91275026    -0.68700
O5          O  0.80326300  0.54261376  0.86386835    -0.68600
O6          O  0.86394561  0.45723943  0.80323074    -0.68700
O7          O  0.80325607  0.45724933  0.86387631    -0.68600
O8          O  0.86395287  0.54260305  0.80321994    -0.68800
V9          V  0.88153202  0.49992700  0.88153180     1.35200
V10         V  0.83453823  0.49992675  0.83448383     1.35200
C11         C  0.89886521  0.55663933  0.81731372     0.80600
C12         C  0.81731697  0.44321055  0.89880793     0.80700
C13         C  0.89885334  0.44319732  0.81733085     0.80600
C14         C  0.81732615  0.55665458  0.89879791     0.80500
O15         O  0.71453872  0.62055764  0.07595399    -0.68600
O16         O  0.65399475  0.68105485  0.99074245    -0.68800
O17         O  0.71453679  0.62054285  0.99075158    -0.68700
O18         O  0.65399706  0.68107110  0.07594454    -0.68700
O19         O  0.70282955  0.73008792  0.07601505    -0.68600
O20         O  0.76350827  0.66942075  0.99065914    -0.68700
O21         O  0.70282573  0.73007350  0.99065097    -0.68600
O22         O  0.76351212  0.66943390  0.07602377    -0.68800
V23         V  0.68523606  0.65177662  0.03334801     1.35200
V24         V  0.73223505  0.69881924  0.03333752     1.35200
C25         C  0.74944571  0.63450767  0.09007036     0.80600
C26         C  0.66791464  0.71597637  0.97661516     0.80700
C27         C  0.74944184  0.63448970  0.97662594     0.80600
C28         C  0.66791850  0.71599743  0.09005832     0.80500
O29         O  0.57594126  0.81873628  0.91271343    -0.68600
O30         O  0.49075717  0.87926901  0.85218019    -0.68800
O31         O  0.49075831  0.81874154  0.91272105    -0.68700
O32         O  0.57594036  0.87926252  0.85217379    -0.68700
O33         O  0.57601325  0.83039815  0.80317906    -0.68600
O34         O  0.49066889  0.76973646  0.86386712    -0.68700
O35         O  0.49066771  0.83040470  0.80318547    -0.68600
O36         O  0.57601406  0.76973112  0.86385951    -0.68800
V37         V  0.53334880  0.84803259  0.88147747     1.35200
V38         V  0.53334080  0.80100214  0.83445705     1.35200
C39         C  0.59005743  0.78381735  0.89877828     0.80600
C40         C  0.47663441  0.86532975  0.81726504     0.80700
C41         C  0.47663630  0.78382305  0.89878967     0.80600
C42         C  0.59005665  0.86531979  0.81725788     0.80500
O43         O  0.65400761  0.04247657  0.71451220    -0.68600
O44         O  0.71455209  0.95728698  0.65398437    -0.68800
O45         O  0.65400456  0.95727495  0.71449104    -0.68700
O46         O  0.71455479  0.04248926  0.65400434    -0.68700
O47         O  0.76352373  0.04255565  0.70288538    -0.68600
O48         O  0.70283137  0.95717993  0.76351416    -0.68700
O49         O  0.76351944  0.95719107  0.70286673    -0.68600
O50         O  0.70283559  0.04254351  0.76353384    -0.68800
V51         V  0.68524897  0.99988170  0.68521804     1.35200
V52         V  0.73224380  0.99986784  0.73226512     1.35200
C53         C  0.66792573  0.05658776  0.74944098     0.80600
C54         C  0.74945587  0.94316019  0.66793347     0.80700
C55         C  0.66792097  0.94314599  0.74941345     0.80600
C56         C  0.74946041  0.05660473  0.66795878     0.80500
O57         O  0.99076199  0.73004534  0.70282113    -0.68600
O58         O  0.07610813  0.66936453  0.76348985    -0.68800
O59         O  0.07610674  0.73003247  0.70280824    -0.68700
O60         O  0.99076302  0.66937607  0.76350411    -0.68700
O61         O  0.99082782  0.62051121  0.71451023    -0.68600
O62         O  0.07601063  0.68102808  0.65395385    -0.68700
O63         O  0.07601203  0.62049959  0.71449598    -0.68600
O64         O  0.99082665  0.68104077  0.65396698    -0.68800
V65         V  0.03343451  0.69876984  0.73222134     1.35200
V66         V  0.03341942  0.65173948  0.68520121     1.35200
C67         C  0.97671693  0.71596316  0.66790125     0.80600
C68         C  0.09013886  0.63443856  0.74940998     0.80700
C69         C  0.09013671  0.71594553  0.66788475     0.80600
C70         C  0.97671803  0.63445315  0.74942961     0.80500
O71         O  0.86395754  0.76975296  0.57603894    -0.68600
O72         O  0.80326607  0.83042027  0.49068869    -0.68800
O73         O  0.86395003  0.76976900  0.49067489    -0.68700
O74         O  0.80327332  0.83040671  0.57605312    -0.68700
O75         O  0.85224532  0.87928409  0.57597601    -0.68600
O76         O  0.91278028  0.81878815  0.49075864    -0.68700
O77         O  0.85223650  0.87929929  0.49077326    -0.68600
O78         O  0.91278923  0.81877062  0.57596128    -0.68800
V79         V  0.83454571  0.80102209  0.53336424     1.35200
V80         V  0.88154372  0.84806555  0.53336749     1.35200
C81         C  0.89887066  0.78384318  0.59007683     0.80600
C82         C  0.81732990  0.86535159  0.47665242     0.80700
C83         C  0.89885899  0.78386661  0.47663359     0.80600
C84         C  0.81733954  0.86533400  0.59009619     0.80500
O85         O  0.49079447  0.18102842  0.91277046    -0.68600
O86         O  0.57597021  0.12048839  0.85223234    -0.68800
O87         O  0.57597816  0.18102589  0.91276493    -0.68700
O88         O  0.49078535  0.12049266  0.85223750    -0.68700
O89         O  0.49070329  0.16935292  0.80323614    -0.68600
O90         O  0.57605763  0.23002404  0.86390147    -0.68700
O91         O  0.57604905  0.16934682  0.80322917    -0.68600
O92         O  0.49071304  0.23002832  0.86390869    -0.68800
V93         V  0.53338217  0.15172824  0.88153156     1.35200
V94         V  0.53338093  0.19875327  0.83450339     1.35200
C95         C  0.47667787  0.21594809  0.89883404     0.80600
C96         C  0.59008598  0.13442295  0.81731154     0.80700
C97         C  0.59009577  0.21594453  0.89882597     0.80600
C98         C  0.47666403  0.13443074  0.81731987     0.80500
O99         O  0.71451455  0.37930580  0.99074037    -0.68600
O100        O  0.65399189  0.31879488  0.07595956    -0.68800
O101        O  0.71451202  0.37932845  0.07594299    -0.68700
O102        O  0.65399221  0.31876871  0.99075642    -0.68700
O103        O  0.70284145  0.26976941  0.99069224    -0.68600
O104        O  0.76350016  0.33046797  0.07604072    -0.68700
O105        O  0.70284030  0.26979454  0.07605673    -0.68600
O106        O  0.76350396  0.33044660  0.99067691    -0.68800
V107        V  0.68522195  0.34807978  0.03334951     1.35200
V108        V  0.73223704  0.30105411  0.03336567     1.35200
C109        C  0.74942787  0.36536804  0.97662825     0.80600
C110        C  0.66792618  0.28388161  0.09009358     0.80700
C111        C  0.74942104  0.36539427  0.09007133     0.80600
C112        C  0.66792458  0.28384479  0.97664825     0.80500
O113        O  0.86389933  0.54262559  0.26350593    -0.68600
O114        O  0.80321578  0.45727087  0.20284127    -0.68800
O115        O  0.86388391  0.45726140  0.26351186    -0.68700
O116        O  0.80323272  0.54263456  0.20283794    -0.68700
O117        O  0.85221640  0.54254342  0.15397293    -0.68600
O118        O  0.91272783  0.45733259  0.21450719    -0.68700
O119        O  0.85220049  0.45734177  0.15397735    -0.68600
O120        O  0.91274251  0.54253472  0.21450040    -0.68800
V121        V  0.83449211  0.49994757  0.23223978     1.35200
V122        V  0.88150247  0.49993797  0.18520932     1.35200
C123        C  0.89881490  0.55666024  0.24941865     0.80600
C124        C  0.81728749  0.44322893  0.16791626     0.80700
C125        C  0.89879636  0.44321599  0.24942880     0.80600
C126        C  0.81731049  0.55667163  0.16791272     0.80500
O127        O  0.99070515  0.66941669  0.30318308    -0.68600
O128        O  0.07607241  0.73007359  0.36384318    -0.68800
O129        O  0.07605056  0.66939841  0.30317197    -0.68700
O130        O  0.99072646  0.73009236  0.36385503    -0.68700
O131        O  0.99080410  0.68109247  0.41271696    -0.68600
O132        O  0.07596536  0.62053970  0.35217512    -0.68700
O133        O  0.07598735  0.68107374  0.41270531    -0.68600
O134        O  0.99078260  0.62055792  0.35218627    -0.68800
V135        V  0.03338848  0.69881098  0.33444775     1.35200
V136        V  0.03338483  0.65178579  0.38147612     1.35200
C137        C  0.97666265  0.63449676  0.31726909     0.80600
C138        C  0.09011224  0.71598798  0.39876449     0.80700
C139        C  0.09008283  0.63447299  0.31725484     0.80600
C140        C  0.97669050  0.71601314  0.39878050     0.80500
O141        O  0.20287603  0.76975544  0.49063798    -0.68600
O142        O  0.26353946  0.83042561  0.57600415    -0.68800
O143        O  0.20288235  0.76974434  0.57600203    -0.68700
O144        O  0.26353216  0.83043373  0.49063942    -0.68700
O145        O  0.21454012  0.87929047  0.49072825    -0.68600
O146        O  0.15402972  0.81874047  0.57592765    -0.68700
O147        O  0.21454575  0.87928055  0.57593059    -0.68600
O148        O  0.15402488  0.81875313  0.49072624    -0.68800
V149        V  0.23227339  0.80102416  0.53332135     1.35200
V150        V  0.18525481  0.84804651  0.53332836     1.35200
C151        C  0.16795923  0.78383769  0.47660084     0.80600
C152        C  0.24945913  0.86534665  0.59004758     0.80700
C153        C  0.16796552  0.78382036  0.59004354     0.80600
C154        C  0.24944944  0.86535696  0.47660238     0.80500
O155        O  0.36389458  0.04257966  0.76351077    -0.68600
O156        O  0.30322973  0.95723076  0.70281698    -0.68800
O157        O  0.36389063  0.95721635  0.76349118    -0.68700
O158        O  0.30323081  0.04259532  0.70283432    -0.68700
O159        O  0.35221917  0.04252542  0.65397411    -0.68600
O160        O  0.41273872  0.95730848  0.71449053    -0.68700
O161        O  0.35221826  0.95732282  0.65395700    -0.68600
O162        O  0.41274215  0.04250966  0.71450985    -0.68800
V163        V  0.33449547  0.99990626  0.73222870     1.35200
V164        V  0.38150995  0.99991689  0.68520245     1.35200
C165        C  0.39881246  0.05661974  0.74943387     0.80600
C166        C  0.31730881  0.94319678  0.66789174     0.80700
C167        C  0.39880532  0.94317923  0.74940596     0.80600
C168        C  0.31730786  0.05664185  0.66791245     0.80500
O169        O  0.76351498  0.95723512  0.36389999    -0.68600
O170        O  0.70284770  0.04261979  0.30325825    -0.68800
O171        O  0.76351424  0.04259883  0.36392582    -0.68700
O172        O  0.70284601  0.95725563  0.30322926    -0.68700
O173        O  0.65400215  0.95731928  0.35223385    -0.68600
O174        O  0.71453107  0.04250061  0.41279121    -0.68700
O175        O  0.65400435  0.04252210  0.35226354    -0.68600
O176        O  0.71453089  0.95729822  0.41276446    -0.68800
V177        V  0.73224645  0.99992647  0.33451293     1.35200
V178        V  0.68523635  0.99990985  0.38154352     1.35200
C179        C  0.74944191  0.94318495  0.39882201     0.80600
C180        C  0.66793513  0.05665663  0.31734908     0.80700
C181        C  0.74943927  0.05662815  0.39885443     0.80600
C182        C  0.66793039  0.94321206  0.31730791     0.80500
O183        O  0.49071304  0.83047241  0.26350125    -0.68600
O184        O  0.57604916  0.76979043  0.20282218    -0.68800
O185        O  0.57605786  0.83046616  0.26349614    -0.68700
O186        O  0.49070363  0.76979642  0.20282912    -0.68700
O187        O  0.49078435  0.81879495  0.15396603    -0.68600
O188        O  0.57597688  0.87932672  0.21449509    -0.68700
O189        O  0.57596884  0.81879080  0.15396095    -0.68600
O190        O  0.49079306  0.87933123  0.21449841    -0.68800
V191        V  0.53338107  0.80106588  0.23222746     1.35200
V192        V  0.53338094  0.84809128  0.18519966     1.35200
C193        C  0.47667692  0.86539652  0.24941889     0.80600
C194        C  0.59008494  0.78387077  0.16789705     0.80700
C195        C  0.59009548  0.86538977  0.24941426     0.80600
C196        C  0.47666415  0.78387777  0.16790592     0.80500
O197        O  0.15403645  0.45728958  0.85221561    -0.68600
O198        O  0.21456517  0.54248793  0.91274299    -0.68800
O199        O  0.15404331  0.54249054  0.85220817    -0.68700
O200        O  0.21455746  0.45728571  0.91274732    -0.68700
O201        O  0.26354479  0.45719847  0.86388594    -0.68600
O202        O  0.20289140  0.54256667  0.80320760    -0.68700
O203        O  0.26355444  0.54256322  0.86388368    -0.68600
O204        O  0.20288280  0.45720302  0.80321321    -0.68800
V205        V  0.18527028  0.49988872  0.88150884     1.35200
V206        V  0.23228440  0.49988335  0.83448212     1.35200
C207        C  0.16796698  0.44316609  0.81729786     0.80600
C208        C  0.24947762  0.55660478  0.89880696     0.80700
C209        C  0.16797585  0.55660762  0.81728727     0.80600
C210        C  0.24946477  0.44315925  0.89880936     0.80500
O211        O  0.30324340  0.66938041  0.07606080    -0.68600
O212        O  0.36389956  0.73004813  0.99068726    -0.68800
O213        O  0.30324457  0.66936881  0.99069621    -0.68700
O214        O  0.36390134  0.73006228  0.07605103    -0.68700
O215        O  0.41275363  0.68106599  0.07597933    -0.68600
O216        O  0.35223755  0.62051319  0.99078651    -0.68700
O217        O  0.41275218  0.68105191  0.99077767    -0.68600
O218        O  0.35223640  0.62052476  0.07598927    -0.68800
V219        V  0.33450640  0.69878042  0.03337460     1.35200
V220        V  0.38152530  0.65175850  0.03338359     1.35200
C221        C  0.31732317  0.63445877  0.09010523     0.80600
C222        C  0.39881547  0.71596650  0.97664956     0.80700
C223        C  0.31732717  0.63444580  0.97666031     0.80600
C224        C  0.39882010  0.71598765  0.09009141     0.80500
O225        O  0.20281266  0.45720915  0.26350834    -0.68600
O226        O  0.26350787  0.54256685  0.20285566    -0.68800
O227        O  0.20282155  0.54257298  0.26350374    -0.68700
O228        O  0.26350002  0.45720274  0.20285797    -0.68700
O229        O  0.21453057  0.45728734  0.15397763    -0.68600
O230        O  0.15399339  0.54249611  0.21448209    -0.68700
O231        O  0.21453930  0.54248950  0.15397438    -0.68600
O232        O  0.15398375  0.45729395  0.21448756    -0.68800
V233        V  0.23222665  0.49988762  0.23224656     1.35200
V234        V  0.18523087  0.49989129  0.18520048     1.35200
C235        C  0.16790004  0.44317391  0.24941411     0.80600
C236        C  0.24944500  0.55660851  0.16792591     0.80700
C237        C  0.16791368  0.55661675  0.24940583     0.80600
C238        C  0.24943549  0.44316513  0.16792786     0.80500
O239        O  0.30325270  0.33039105  0.99069750    -0.68600
O240        O  0.36393144  0.26975077  0.07607574    -0.68800
O241        O  0.30325141  0.33040467  0.07606199    -0.68700
O242        O  0.36393255  0.26973449  0.99071133    -0.68700
O243        O  0.41276737  0.31874908  0.99078442    -0.68600
O244        O  0.35222415  0.37928142  0.07597140    -0.68700
O245        O  0.41276355  0.31876835  0.07598660    -0.68600
O246        O  0.35222855  0.37926489  0.99076925    -0.68800
V247        V  0.33452595  0.30100491  0.03338625     1.35200
V248        V  0.38152668  0.34804588  0.03337787     1.35200
C249        C  0.31732167  0.36531649  0.97665135     0.80600
C250        C  0.39884118  0.28384828  0.09011471     0.80700
C251        C  0.31731837  0.36533512  0.09009564     0.80600
C252        C  0.39884502  0.28382330  0.97667016     0.80500
O253        O  0.49073096  0.23010849  0.20288668    -0.68600
O254        O  0.57607736  0.16944394  0.26357123    -0.68800
O255        O  0.57607624  0.23011378  0.20288823    -0.68700
O256        O  0.49073181  0.16944132  0.26356701    -0.68700
O257        O  0.49081635  0.12057737  0.21457186    -0.68600
O258        O  0.57599758  0.18110835  0.15403468    -0.68700
O259        O  0.57599868  0.12058022  0.21457595    -0.68600
O260        O  0.49081540  0.18110312  0.15403297    -0.68800
V261        V  0.53340472  0.19884251  0.23229415     1.35200
V262        V  0.53340751  0.15181217  0.18527364     1.35200
C263        C  0.47669316  0.21602011  0.16796646     0.80600
C264        C  0.59011465  0.13451944  0.24949379     0.80700
C265        C  0.59011293  0.21602941  0.16796623     0.80600
C266        C  0.47669409  0.13451820  0.24948596     0.80500
O267        O  0.99078181  0.31874620  0.65402801    -0.68600
O268        O  0.07598663  0.37927050  0.71453860    -0.68800
O269        O  0.07596431  0.31873638  0.65400845    -0.68700
O270        O  0.99080307  0.37928089  0.71455874    -0.68700
O271        O  0.99072740  0.33042228  0.76356192    -0.68600
O272        O  0.07605142  0.26973656  0.70287049    -0.68700
O273        O  0.07607357  0.33041166  0.76354172    -0.68600
O274        O  0.99070628  0.26974634  0.70289012    -0.68800
V275        V  0.03338395  0.34803883  0.68525341     1.35200
V276        V  0.03338945  0.30101367  0.73228180     1.35200
C277        C  0.97666328  0.28382950  0.66796910     0.80600
C278        C  0.09011287  0.36533190  0.74945333     0.80700
C279        C  0.09008236  0.28381710  0.66794365     0.80600
C280        C  0.97669022  0.36534632  0.74948043     0.80500
O281        O  0.80324579  0.16938292  0.57609976    -0.68600
O282        O  0.86389305  0.23006790  0.49073178    -0.68800
O283        O  0.80323124  0.16939179  0.49073598    -0.68700
O284        O  0.86390618  0.23005694  0.57609635    -0.68700
O285        O  0.91275452  0.18105649  0.57600400    -0.68600
O286        O  0.85222064  0.12053248  0.49080539    -0.68700
O287        O  0.91274178  0.18106795  0.49080143    -0.68600
O288        O  0.85223452  0.12052289  0.57600729    -0.68800
V289        V  0.83450338  0.19879052  0.53341548     1.35200
V290        V  0.88151849  0.15176473  0.53340448     1.35200
C291        C  0.81732654  0.13445810  0.59013488     0.80600
C292        C  0.89880683  0.21598860  0.47668592     0.80700
C293        C  0.81730666  0.13446907  0.47669217     0.80600
C294        C  0.89882289  0.21597248  0.59013114     0.80500
O295        O  0.26348940  0.16941208  0.49066947    -0.68600
O296        O  0.20281695  0.23005870  0.57604316    -0.68800
O297        O  0.26349731  0.16940440  0.57603369    -0.68700
O298        O  0.20280811  0.23006813  0.49067892    -0.68700
O299        O  0.15397467  0.18105217  0.49076058    -0.68600
O300        O  0.21452386  0.12052833  0.57595339    -0.68700
O301        O  0.15398387  0.18104229  0.57596311    -0.68600
O302        O  0.21451546  0.12053653  0.49075102    -0.68800
V303        V  0.23221894  0.19880108  0.53335602     1.35200
V304        V  0.18521862  0.15175983  0.53335672     1.35200
C305        C  0.24942159  0.13448431  0.47662953     0.80600
C306        C  0.16790767  0.21596368  0.59008589     0.80700
C307        C  0.24943116  0.13447519  0.59007302     0.80600
C308        C  0.16789463  0.21597767  0.47664199     0.80500
O309        O  0.35221312  0.95732778  0.41272592    -0.68600
O310        O  0.41275466  0.04254720  0.35223922    -0.68800
O311        O  0.35220909  0.04252974  0.41274632    -0.68700
O312        O  0.41275805  0.95734529  0.35221661    -0.68700
O313        O  0.36392832  0.95727479  0.30319662    -0.68600
O314        O  0.30324097  0.04262276  0.36386462    -0.68700
O315        O  0.36392721  0.04263886  0.30321667    -0.68600
O316        O  0.30324234  0.95725839  0.36384668    -0.68800
V317        V  0.38151455  0.99993759  0.38151190     1.35200
V318        V  0.33451851  0.99994837  0.33446593     1.35200
C319        C  0.31730794  0.94321026  0.39877281     0.80600
C320        C  0.39883600  0.05667644  0.31731793     0.80700
C321        C  0.31730453  0.05665461  0.39879734     0.80600
C322        C  0.39883919  0.94323266  0.31728874     0.80500
O323        O  0.07599871  0.33043458  0.30321296    -0.68600
O324        O  0.99065487  0.26977590  0.36390742    -0.68800
O325        O  0.99065340  0.33044523  0.30322494    -0.68700
O326        O  0.07599986  0.26976546  0.36389525    -0.68700
O327        O  0.07593310  0.31877000  0.41274946    -0.68600
O328        O  0.99074799  0.37930967  0.35221926    -0.68700
O329        O  0.99074942  0.31878035  0.41276169    -0.68600
O330        O  0.07593187  0.37929904  0.35220726    -0.68800
V331        V  0.03332683  0.30103996  0.33449455     1.35200
V332        V  0.03334020  0.34807011  0.38151488     1.35200
C333        C  0.09004344  0.36535709  0.31728873     0.80600
C334        C  0.97662525  0.28386190  0.39883153     0.80700
C335        C  0.97662298  0.36537176  0.31730412     0.80600
C336        C  0.09004469  0.28384860  0.39881485     0.80500
C337        C  0.14353728  0.23983793  0.44625057    -0.10100
C338        C  0.12044021  0.25998605  0.42316152    -0.11600
C339        C  0.27328641  0.11014071  0.44623297    -0.10100
C340        C  0.29343830  0.08704894  0.42314243    -0.11600
C341        C  0.92314770  0.23985508  0.44628668    -0.10100
C342        C  0.94623512  0.26000404  0.42318902    -0.11600
C343        C  0.94626453  0.25997123  0.64362550    -0.10100
C344        C  0.92317051  0.23982817  0.62053108    -0.11600
C345        C  0.12046973  0.25995535  0.64358940    -0.10100
C346        C  0.14355962  0.23981372  0.62048981    -0.11600
C347        C  0.44629274  0.11017466  0.27334040    -0.10100
C348        C  0.42319116  0.08707992  0.29347471    -0.11600
C349        C  0.42319283  0.26000308  0.12051963    -0.10100
C350        C  0.44629245  0.23987007  0.14361755    -0.11600
C351        C  0.27330250  0.41277019  0.14358418    -0.10100
C352        C  0.29345430  0.38968065  0.12049150    -0.11600
C353        C  0.12043971  0.38969833  0.29342169    -0.10100
C354        C  0.14353896  0.41278397  0.27327233    -0.11600
C355        C  0.27331272  0.58700811  0.14358682    -0.10100
C356        C  0.29346318  0.61010599  0.12049981    -0.11600
C357        C  0.14361778  0.41276851  0.79344124    -0.10100
C358        C  0.12051791  0.38967600  0.77330281    -0.11600
C359        C  0.29347691  0.61009367  0.94625822    -0.10100
C360        C  0.27333681  0.58700022  0.92315847    -0.11600
C361        C  0.27331594  0.41275489  0.92315722    -0.10100
C362        C  0.29345881  0.38965795  0.94625104    -0.11600
C363        C  0.44626589  0.76001625  0.14356172    -0.10100
C364        C  0.42316968  0.73986170  0.12047773    -0.11600
C365        C  0.42319374  0.91284049  0.29342874    -0.10100
C366        C  0.44628656  0.88974808  0.27328123    -0.11600
C367        C  0.79344322  0.11011928  0.44629908    -0.10100
C368        C  0.77329625  0.08702392  0.42320729    -0.11600
C369        C  0.64358026  0.91282564  0.29343426    -0.10100
C370        C  0.62048846  0.88973853  0.27327812    -0.11600
C371        C  0.62050410  0.11016963  0.27335875    -0.10100
C372        C  0.64359153  0.08706719  0.29350133    -0.11600
C373        C  0.27329732  0.11013105  0.62047005    -0.10100
C374        C  0.29344728  0.08704002  0.64356449    -0.11600
C375        C  0.29345599  0.91279677  0.64353952    -0.10100
C376        C  0.27331584  0.88969813  0.62044506    -0.11600
C377        C  0.27330017  0.88970988  0.44620191    -0.10100
C378        C  0.29344358  0.91280733  0.42310925    -0.11600
C379        C  0.14361317  0.75998050  0.44620115    -0.10100
C380        C  0.12051565  0.73984030  0.42310778    -0.11600
C381        C  0.12047147  0.61011857  0.29339499    -0.10100
C382        C  0.14356329  0.58701947  0.27325488    -0.11600
C383        C  0.92316564  0.58705847  0.27327314    -0.10100
C384        C  0.94626216  0.61015237  0.29341393    -0.11600
C385        C  0.94623052  0.38972301  0.29344278    -0.10100
C386        C  0.92314034  0.41281748  0.27329305    -0.11600
C387        C  0.77327472  0.38974748  0.12046959    -0.10100
C388        C  0.79342128  0.41283804  0.14356633    -0.11600
C389        C  0.64358556  0.26003200  0.12050489    -0.10100
C390        C  0.62050045  0.23989049  0.14361050    -0.11600
C391        C  0.42316534  0.08700357  0.77330762    -0.10100
C392        C  0.44626406  0.11008625  0.79346082    -0.11600
C393        C  0.62048759  0.23981082  0.92317374    -0.10100
C394        C  0.64357749  0.25996928  0.94626083    -0.11600
C395        C  0.44628864  0.23981221  0.92318516    -0.10100
C396        C  0.42319738  0.25996166  0.94627758    -0.11600
C397        C  0.94630199  0.73987724  0.42313169    -0.10100
C398        C  0.92320996  0.76001879  0.44622973    -0.11600
C399        C  0.79346128  0.88969675  0.44625784    -0.10100
C400        C  0.77330724  0.91278711  0.42316608    -0.11600
C401        C  0.92322863  0.75998022  0.62046592    -0.10100
C402        C  0.94632389  0.73982854  0.64355392    -0.11600
C403        C  0.14362176  0.75995072  0.62043726    -0.10100
C404        C  0.12053035  0.73980098  0.64353010    -0.11600
C405        C  0.14362898  0.58700073  0.79341973    -0.10100
C406        C  0.12053490  0.61009023  0.77326920    -0.11600
C407        C  0.77332166  0.91276545  0.64358722    -0.10100
C408        C  0.79347345  0.88967483  0.62049496    -0.11600
C409        C  0.64357088  0.08697994  0.77330137    -0.10100
C410        C  0.62047709  0.11007175  0.79344904    -0.09200
C411        C  0.79347404  0.11010463  0.62053383    -0.10100
C412        C  0.77332778  0.08700691  0.64362393    -0.11600
C413        C  0.64356131  0.91274814  0.77325969    -0.10100
C414        C  0.62045811  0.88965903  0.79339872    -0.11600
C415        C  0.42314942  0.91277545  0.77326105    -0.10100
C416        C  0.44624064  0.88967845  0.79340513    -0.11600
C417        C  0.44624485  0.75996685  0.92314462    -0.10100
C418        C  0.42315639  0.73982363  0.94624499    -0.11600
C419        C  0.62045783  0.75996255  0.92312321    -0.10100
C420        C  0.64355869  0.73982466  0.94621582    -0.11600
C421        C  0.77331146  0.61016805  0.12046996    -0.10100
C422        C  0.79345734  0.58707402  0.14356427    -0.11600
C423        C  0.64356616  0.73985796  0.12045251    -0.10100
C424        C  0.62047456  0.76000653  0.14354563    -0.11600
C425        C  0.92322673  0.58702697  0.79345271    -0.10100
C426        C  0.94632419  0.61011150  0.77329963    -0.11600
C427        C  0.79345808  0.58705189  0.92313873    -0.10100
C428        C  0.77330609  0.61014336  0.94622998    -0.11600
C429        C  0.79344712  0.41281281  0.92314802    -0.10100
C430        C  0.77329280  0.38971721  0.94623409    -0.11600
C431        C  0.94630052  0.38969781  0.77334296    -0.10100
C432        C  0.92320679  0.41279499  0.79348339    -0.11600
loop_ 
_geom_bond_atom_site_label_1 
_geom_bond_atom_site_label_2 
_geom_bond_distance 
_geom_bond_site_symmetry_2 
_ccdc_geom_bond_type 
O1            V9   1.899       .  S
O1           C11   1.262       .  A
O2            V9   1.899       .  S
O2           C12   1.262       .  A
O3            V9   1.899       .  S
O3           C13   1.262       .  A
O4            V9   1.899       .  S
O4           C14   1.262       .  A
O5           V10   1.903       .  S
O5           C14   1.263       .  A
O6           V10   1.903       .  S
O6           C13   1.263       .  A
O7           V10   1.903       .  S
O7           C12   1.263       .  A
O8           V10   1.903       .  S
O8           C11   1.263       .  A
V9           V10   2.091       .  T
C11         C425   1.436       .  S
C12         C429   1.436       .  S
C13         C432   1.436       .  S
C14         C427   1.436       .  S
O15          V23   1.899       .  S
O15          C25   1.262       .  A
O16          V23   1.899   1_556  S
O16          C26   1.262       .  A
O17          V23   1.899   1_556  S
O17          C27   1.262       .  A
O18          V23   1.899       .  S
O18          C28   1.262       .  A
O19          V24   1.903       .  S
O19          C28   1.263       .  A
O20          V24   1.903   1_556  S
O20          C27   1.263       .  A
O21          V24   1.903   1_556  S
O21          C26   1.263       .  A
O22          V24   1.903       .  S
O22          C25   1.263       .  A
V23          V24   2.091       .  T
C25         C421   1.436       .  S
C26         C420   1.436       .  S
C27         C428   1.436       .  S
C28         C423   1.436       .  S
O29          V37   1.899       .  S
O29          C39   1.262       .  A
O30          V37   1.899       .  S
O30          C40   1.262       .  A
O31          V37   1.899       .  S
O31          C41   1.262       .  A
O32          V37   1.899       .  S
O32          C42   1.262       .  A
O33          V38   1.903       .  S
O33          C42   1.263       .  A
O34          V38   1.903       .  S
O34          C41   1.263       .  A
O35          V38   1.903       .  S
O35          C40   1.263       .  A
O36          V38   1.903       .  S
O36          C39   1.263       .  A
V37          V38   2.091       .  T
C39         C419   1.436       .  S
C40         C416   1.436       .  S
C41         C417   1.436       .  S
C42         C414   1.436       .  S
O43          V51   1.899   1_545  S
O43          C53   1.262       .  A
O44          V51   1.899       .  S
O44          C54   1.262       .  A
O45          V51   1.899       .  S
O45          C55   1.262       .  A
O46          V51   1.899   1_545  S
O46          C56   1.262       .  A
O47          V52   1.903   1_545  S
O47          C56   1.263       .  A
O48          V52   1.903       .  S
O48          C55   1.263       .  A
O49          V52   1.903       .  S
O49          C54   1.263       .  A
O50          V52   1.903   1_545  S
O50          C53   1.263       .  A
V51          V52   2.091       .  T
C53         C409   1.436       .  S
C54         C407   1.436       .  S
C55         C413   1.436       .  S
C56         C412   1.436       .  S
O57          V65   1.903   1_655  S
O57          C67   1.263       .  A
O58          V65   1.903       .  S
O58          C68   1.263       .  A
O59          V65   1.903       .  S
O59          C69   1.263       .  A
O60          V65   1.903   1_655  S
O60          C70   1.263       .  A
O61          V66   1.899   1_655  S
O61          C70   1.262       .  A
O62          V66   1.899       .  S
O62          C69   1.262       .  A
O63          V66   1.899       .  S
O63          C68   1.262       .  A
O64          V66   1.899   1_655  S
O64          C67   1.262       .  A
V65          V66   2.091       .  T
C67         C402   1.436       .  S
C68         C406   1.436       .  S
C69         C404   1.436       .  S
C70         C426   1.436       .  S
O71          V79   1.903       .  S
O71          C81   1.263       .  A
O72          V79   1.903       .  S
O72          C82   1.263       .  A
O73          V79   1.903       .  S
O73          C83   1.263       .  A
O74          V79   1.903       .  S
O74          C84   1.263       .  A
O75          V80   1.899       .  S
O75          C84   1.262       .  A
O76          V80   1.899       .  S
O76          C83   1.262       .  A
O77          V80   1.899       .  S
O77          C82   1.262       .  A
O78          V80   1.899       .  S
O78          C81   1.262       .  A
V79          V80   2.091       .  T
C81         C401   1.436       .  S
C82         C399   1.436       .  S
C83         C398   1.436       .  S
C84         C408   1.436       .  S
O85          V93   1.899       .  S
O85          C95   1.262       .  A
O86          V93   1.899       .  S
O86          C96   1.262       .  A
O87          V93   1.899       .  S
O87          C97   1.262       .  A
O88          V93   1.899       .  S
O88          C98   1.262       .  A
O89          V94   1.903       .  S
O89          C98   1.263       .  A
O90          V94   1.903       .  S
O90          C97   1.263       .  A
O91          V94   1.903       .  S
O91          C96   1.263       .  A
O92          V94   1.903       .  S
O92          C95   1.263       .  A
V93          V94   2.091       .  T
C95         C395   1.436       .  S
C96         C410   1.436       .  S
C97         C393   1.436       .  S
C98         C392   1.436       .  S
O99         V107   1.899   1_556  S
O99         C109   1.262       .  A
O100        V107   1.899       .  S
O100        C110   1.262       .  A
O101        V107   1.899       .  S
O101        C111   1.262       .  A
O102        V107   1.899   1_556  S
O102        C112   1.262       .  A
O103        V108   1.903   1_556  S
O103        C112   1.263       .  A
O104        V108   1.903       .  S
O104        C111   1.263       .  A
O105        V108   1.903       .  S
O105        C110   1.263       .  A
O106        V108   1.903   1_556  S
O106        C109   1.263       .  A
V107        V108   2.091       .  T
C109        C430   1.436       .  S
C110        C389   1.436       .  S
C111        C387   1.436       .  S
C112        C394   1.436       .  S
O113        V121   1.903       .  S
O113        C123   1.263       .  A
O114        V121   1.903       .  S
O114        C124   1.263       .  A
O115        V121   1.903       .  S
O115        C125   1.263       .  A
O116        V121   1.903       .  S
O116        C126   1.263       .  A
O117        V122   1.899       .  S
O117        C126   1.262       .  A
O118        V122   1.899       .  S
O118        C125   1.262       .  A
O119        V122   1.899       .  S
O119        C124   1.262       .  A
O120        V122   1.899       .  S
O120        C123   1.262       .  A
V121        V122   2.091       .  T
C123        C383   1.436       .  S
C124        C388   1.436       .  S
C125        C386   1.436       .  S
C126        C422   1.436       .  S
O127        V135   1.903   1_655  S
O127        C137   1.263       .  A
O128        V135   1.903       .  S
O128        C138   1.263       .  A
O129        V135   1.903       .  S
O129        C139   1.263       .  A
O130        V135   1.903   1_655  S
O130        C140   1.263       .  A
O131        V136   1.899   1_655  S
O131        C140   1.262       .  A
O132        V136   1.899       .  S
O132        C139   1.262       .  A
O133        V136   1.899       .  S
O133        C138   1.262       .  A
O134        V136   1.899   1_655  S
O134        C137   1.262       .  A
V135        V136   2.091       .  T
C137        C384   1.436       .  S
C138        C380   1.436       .  S
C139        C381   1.436       .  S
C140        C397   1.436       .  S
O141        V149   1.903       .  S
O141        C151   1.263       .  A
O142        V149   1.903       .  S
O142        C152   1.263       .  A
O143        V149   1.903       .  S
O143        C153   1.263       .  A
O144        V149   1.903       .  S
O144        C154   1.263       .  A
O145        V150   1.899       .  S
O145        C154   1.262       .  A
O146        V150   1.899       .  S
O146        C153   1.262       .  A
O147        V150   1.899       .  S
O147        C152   1.262       .  A
O148        V150   1.899       .  S
O148        C151   1.262       .  A
V149        V150   2.091       .  T
C151        C379   1.436       .  S
C152        C376   1.436       .  S
C153        C403   1.436       .  S
C154        C377   1.436       .  S
O155        V163   1.903   1_545  S
O155        C165   1.263       .  A
O156        V163   1.903       .  S
O156        C166   1.263       .  A
O157        V163   1.903       .  S
O157        C167   1.263       .  A
O158        V163   1.903   1_545  S
O158        C168   1.263       .  A
O159        V164   1.899   1_545  S
O159        C168   1.262       .  A
O160        V164   1.899       .  S
O160        C167   1.262       .  A
O161        V164   1.899       .  S
O161        C166   1.262       .  A
O162        V164   1.899   1_545  S
O162        C165   1.262       .  A
V163        V164   2.091       .  T
C165        C391   1.436       .  S
C166        C375   1.436       .  S
C167        C415   1.436       .  S
C168        C374   1.436       .  S
O169        V177   1.903       .  S
O169        C179   1.263       .  A
O170        V177   1.903   1_545  S
O170        C180   1.263       .  A
O171        V177   1.903   1_545  S
O171        C181   1.263       .  A
O172        V177   1.903       .  S
O172        C182   1.263       .  A
O173        V178   1.899       .  S
O173        C182   1.262       .  A
O174        V178   1.899   1_545  S
O174        C181   1.262       .  A
O175        V178   1.899   1_545  S
O175        C180   1.262       .  A
O176        V178   1.899       .  S
O176        C179   1.262       .  A
V177        V178   2.091       .  T
C179        C400   1.436       .  S
C180        C372   1.436       .  S
C181        C368   1.436       .  S
C182        C369   1.436       .  S
O183        V191   1.903       .  S
O183        C193   1.263       .  A
O184        V191   1.903       .  S
O184        C194   1.263       .  A
O185        V191   1.903       .  S
O185        C195   1.263       .  A
O186        V191   1.903       .  S
O186        C196   1.263       .  A
O187        V192   1.899       .  S
O187        C196   1.262       .  A
O188        V192   1.899       .  S
O188        C195   1.262       .  A
O189        V192   1.899       .  S
O189        C194   1.262       .  A
O190        V192   1.899       .  S
O190        C193   1.262       .  A
V191        V192   2.091       .  T
C193        C366   1.436       .  S
C194        C424   1.436       .  S
C195        C370   1.436       .  S
C196        C363   1.436       .  S
O197        V205   1.899       .  S
O197        C207   1.262       .  A
O198        V205   1.899       .  S
O198        C208   1.262       .  A
O199        V205   1.899       .  S
O199        C209   1.262       .  A
O200        V205   1.899       .  S
O200        C210   1.262       .  A
O201        V206   1.903       .  S
O201        C210   1.263       .  A
O202        V206   1.903       .  S
O202        C209   1.263       .  A
O203        V206   1.903       .  S
O203        C208   1.263       .  A
O204        V206   1.903       .  S
O204        C207   1.263       .  A
V205        V206   2.091       .  T
C207        C357   1.436       .  S
C208        C360   1.436       .  S
C209        C405   1.436       .  S
C210        C361   1.436       .  S
O211        V219   1.903       .  S
O211        C221   1.263       .  A
O212        V219   1.903   1_556  S
O212        C222   1.263       .  A
O213        V219   1.903   1_556  S
O213        C223   1.263       .  A
O214        V219   1.903       .  S
O214        C224   1.263       .  A
O215        V220   1.899       .  S
O215        C224   1.262       .  A
O216        V220   1.899   1_556  S
O216        C223   1.262       .  A
O217        V220   1.899   1_556  S
O217        C222   1.262       .  A
O218        V220   1.899       .  S
O218        C221   1.262       .  A
V219        V220   2.091       .  T
C221        C356   1.436       .  S
C222        C418   1.436       .  S
C223        C359   1.436       .  S
C224        C364   1.436       .  S
O225        V233   1.903       .  S
O225        C235   1.263       .  A
O226        V233   1.903       .  S
O226        C236   1.263       .  A
O227        V233   1.903       .  S
O227        C237   1.263       .  A
O228        V233   1.903       .  S
O228        C238   1.263       .  A
O229        V234   1.899       .  S
O229        C238   1.262       .  A
O230        V234   1.899       .  S
O230        C237   1.262       .  A
O231        V234   1.899       .  S
O231        C236   1.262       .  A
O232        V234   1.899       .  S
O232        C235   1.262       .  A
V233        V234   2.091       .  T
C235        C354   1.436       .  S
C236        C355   1.436       .  S
C237        C382   1.436       .  S
C238        C351   1.436       .  S
O239        V247   1.903   1_556  S
O239        C249   1.263       .  A
O240        V247   1.903       .  S
O240        C250   1.263       .  A
O241        V247   1.903       .  S
O241        C251   1.263       .  A
O242        V247   1.903   1_556  S
O242        C252   1.263       .  A
O243        V248   1.899   1_556  S
O243        C252   1.262       .  A
O244        V248   1.899       .  S
O244        C251   1.262       .  A
O245        V248   1.899       .  S
O245        C250   1.262       .  A
O246        V248   1.899   1_556  S
O246        C249   1.262       .  A
V247        V248   2.091       .  T
C249        C362   1.436       .  S
C250        C349   1.436       .  S
C251        C352   1.436       .  S
C252        C396   1.436       .  S
O253        V261   1.903       .  S
O253        C263   1.263       .  A
O254        V261   1.903       .  S
O254        C264   1.263       .  A
O255        V261   1.903       .  S
O255        C265   1.263       .  A
O256        V261   1.903       .  S
O256        C266   1.263       .  A
O257        V262   1.899       .  S
O257        C266   1.262       .  A
O258        V262   1.899       .  S
O258        C265   1.262       .  A
O259        V262   1.899       .  S
O259        C264   1.262       .  A
O260        V262   1.899       .  S
O260        C263   1.262       .  A
V261        V262   2.091       .  T
C263        C350   1.436       .  S
C264        C371   1.436       .  S
C265        C390   1.436       .  S
C266        C347   1.436       .  S
O267        V275   1.899   1_655  S
O267        C277   1.262       .  A
O268        V275   1.899       .  S
O268        C278   1.262       .  A
O269        V275   1.899       .  S
O269        C279   1.262       .  A
O270        V275   1.899   1_655  S
O270        C280   1.262       .  A
O271        V276   1.903   1_655  S
O271        C280   1.263       .  A
O272        V276   1.903       .  S
O272        C279   1.263       .  A
O273        V276   1.903       .  S
O273        C278   1.263       .  A
O274        V276   1.903   1_655  S
O274        C277   1.263       .  A
V275        V276   2.091       .  T
C277        C343   1.436       .  S
C278        C358   1.436       .  S
C279        C345   1.436       .  S
C280        C431   1.436       .  S
O281        V289   1.903       .  S
O281        C291   1.263       .  A
O282        V289   1.903       .  S
O282        C292   1.263       .  A
O283        V289   1.903       .  S
O283        C293   1.263       .  A
O284        V289   1.903       .  S
O284        C294   1.263       .  A
O285        V290   1.899       .  S
O285        C294   1.262       .  A
O286        V290   1.899       .  S
O286        C293   1.262       .  A
O287        V290   1.899       .  S
O287        C292   1.262       .  A
O288        V290   1.899       .  S
O288        C291   1.262       .  A
V289        V290   2.091       .  T
C291        C411   1.436       .  S
C292        C341   1.436       .  S
C293        C367   1.436       .  S
C294        C344   1.436       .  S
O295        V303   1.903       .  S
O295        C305   1.263       .  A
O296        V303   1.903       .  S
O296        C306   1.263       .  A
O297        V303   1.903       .  S
O297        C307   1.263       .  A
O298        V303   1.903       .  S
O298        C308   1.263       .  A
O299        V304   1.899       .  S
O299        C308   1.262       .  A
O300        V304   1.899       .  S
O300        C307   1.262       .  A
O301        V304   1.899       .  S
O301        C306   1.262       .  A
O302        V304   1.899       .  S
O302        C305   1.262       .  A
V303        V304   2.091       .  T
C305        C339   1.436       .  S
C306        C346   1.436       .  S
C307        C373   1.436       .  S
C308        C337   1.436       .  S
O309        V317   1.899       .  S
O309        C319   1.262       .  A
O310        V317   1.899   1_545  S
O310        C320   1.262       .  A
O311        V317   1.899   1_545  S
O311        C321   1.262       .  A
O312        V317   1.899       .  S
O312        C322   1.262       .  A
O313        V318   1.903       .  S
O313        C322   1.263       .  A
O314        V318   1.903   1_545  S
O314        C321   1.263       .  A
O315        V318   1.903   1_545  S
O315        C320   1.263       .  A
O316        V318   1.903       .  S
O316        C319   1.263       .  A
V317        V318   2.091       .  T
C319        C378   1.436       .  S
C320        C348   1.436       .  S
C321        C340   1.436       .  S
C322        C365   1.436       .  S
O323        V331   1.903       .  S
O323        C333   1.263       .  A
O324        V331   1.903   1_655  S
O324        C334   1.263       .  A
O325        V331   1.903   1_655  S
O325        C335   1.263       .  A
O326        V331   1.903       .  S
O326        C336   1.263       .  A
O327        V332   1.899       .  S
O327        C336   1.262       .  A
O328        V332   1.899   1_655  S
O328        C335   1.262       .  A
O329        V332   1.899   1_655  S
O329        C334   1.262       .  A
O330        V332   1.899       .  S
O330        C333   1.262       .  A
V331        V332   2.091       .  T
C333        C353   1.436       .  S
C334        C342   1.436       .  S
C335        C385   1.436       .  S
C336        C338   1.436       .  S
C337        C338   1.206       .  T
C339        C340   1.206       .  T
C341        C342   1.206       .  T
C343        C344   1.206       .  T
C345        C346   1.206       .  T
C347        C348   1.206       .  T
C349        C350   1.206       .  T
C351        C352   1.206       .  T
C353        C354   1.206       .  T
C355        C356   1.206       .  T
C357        C358   1.206       .  T
C359        C360   1.206       .  T
C361        C362   1.206       .  T
C363        C364   1.206       .  T
C365        C366   1.206       .  T
C367        C368   1.206       .  T
C369        C370   1.206       .  T
C371        C372   1.206       .  T
C373        C374   1.206       .  T
C375        C376   1.206       .  T
C377        C378   1.206       .  T
C379        C380   1.206       .  T
C381        C382   1.206       .  T
C383        C384   1.206       .  T
C385        C386   1.206       .  T
C387        C388   1.206       .  T
C389        C390   1.206       .  T
C391        C392   1.206       .  T
C393        C394   1.206       .  T
C395        C396   1.206       .  T
C397        C398   1.206       .  T
C399        C400   1.206       .  T
C401        C402   1.206       .  T
C403        C404   1.206       .  T
C405        C406   1.206       .  T
C407        C408   1.206       .  T
C409        C410   1.206       .  T
C411        C412   1.206       .  T
C413        C414   1.206       .  T
C415        C416   1.206       .  T
C417        C418   1.206       .  T
C419        C420   1.206       .  T
C421        C422   1.206       .  T
C423        C424   1.206       .  T
C425        C426   1.206       .  T
C427        C428   1.206       .  T
C429        C430   1.206       .  T
C431        C432   1.206       .  T
