geometry optimzed in LAMMPS
_audit_creation_date              2020-12-01 
_audit_creation_method            'lammps2cif' 
_symmetry_space_group_name_H-M    'P1' 
_symmetry_Int_Tables_number       1 
_symmetry_cell_setting            triclinic 
loop_ 
_symmetry_equiv_pos_as_xyz 
  x,y,z 
_cell_length_a                    62.56489273 
_cell_length_b                    62.52918187625141 
_cell_length_c                    62.379188833807895 
_cell_angle_alpha                 89.89165170696214 
_cell_angle_beta                  90.06770747866989 
_cell_angle_gamma                 90.25010571521216 
loop_ 
_atom_site_label 
_atom_site_type_symbol 
_atom_site_fract_x 
_atom_site_fract_y 
_atom_site_fract_z 
_atom_site_charge 
O1          O  0.66042270  0.10067156  0.50788978    -0.86000
O2          O  0.69479752  0.12200103  0.52425917    -0.83100
C3          C  0.71402265  0.12714700  0.52680041     0.97400
O4          O  0.72825554  0.12160273  0.51353917    -0.83100
O5          O  0.73239143  0.07854004  0.51919375    -0.85800
C6          C  0.72726634  0.05910886  0.51852403     1.01900
O7          O  0.71311526  0.05233493  0.50547459    -0.78500
O8          O  0.67480829  0.07046457  0.51579797    -0.78700
C9          C  0.66418590  0.08654506  0.52177432     1.01900
O10         O  0.67446471  0.11334866  0.46539034    -0.86000
O11         O  0.70580459  0.13702131  0.48276364    -0.83100
C12         C  0.72012863  0.13301854  0.46921093     0.97400
O13         O  0.72882112  0.11492194  0.46815876    -0.83100
O14         O  0.73821981  0.07188423  0.47492919    -0.85700
C15         C  0.72759876  0.06160960  0.46114294     1.01900
O16         O  0.70740827  0.06282808  0.46090863    -0.78600
O17         O  0.66726708  0.07904362  0.46734732    -0.78700
C18         C  0.66698946  0.09673785  0.45688218     1.01900
Cr19       Cr  0.68490568  0.11639688  0.49489391     1.93700
Cr20       Cr  0.72980599  0.09667558  0.49369755     1.93200
Cr21       Cr  0.69074302  0.06793185  0.48774907     1.39100
O22         O  0.70185171  0.09351123  0.49208032    -1.23800
O23         O  0.07487564  0.54460761  0.68540636    -0.86000
O24         O  0.09885626  0.52666579  0.71599370    -0.83100
C25         C  0.09505532  0.54090119  0.72954570     0.97400
O26         O  0.07698758  0.54219143  0.73833442    -0.83100
O27         O  0.03450509  0.53557563  0.74851699    -0.85800
C28         C  0.02264001  0.54758159  0.73764346     1.01900
O29         O  0.02232967  0.54645915  0.71744928    -0.78500
O30         O  0.04053655  0.54262354  0.67817290    -0.78700
C31         C  0.05823008  0.55322159  0.67821063     1.01900
O32         O  0.06330869  0.50324881  0.66976718    -0.86000
O33         O  0.08394639  0.48581631  0.70514870    -0.83100
C34         C  0.08919357  0.48383402  0.72454684     0.97400
O35         O  0.08290127  0.49674467  0.73875555    -0.83100
O36         O  0.04009522  0.49139925  0.74481959    -0.85700
C37         C  0.02117820  0.48975892  0.73803837     1.01900
O38         O  0.01463771  0.50096957  0.72219084    -0.78600
O39         O  0.03353601  0.49345819  0.68375586    -0.78700
C40         C  0.04959779  0.48887203  0.67252440     1.01900
Cr41       Cr  0.07820884  0.51512490  0.69519871     1.93700
Cr42       Cr  0.05851991  0.51664694  0.74032238     1.93200
Cr43       Cr  0.02959185  0.52056231  0.70059781     1.39100
O44         O  0.05512873  0.51733302  0.71216585    -1.23800
O45         O  0.49662499  0.71164582  0.09142322    -0.86000
O46         O  0.47808121  0.74243208  0.11464912    -0.83100
C47         C  0.49146476  0.75672777  0.10984991     0.97400
O48         O  0.49108638  0.76558322  0.09174093    -0.83100
O49         O  0.48479014  0.77381703  0.04910170    -0.85800
C50         C  0.49842780  0.76329489  0.03877025     1.01900
O51         O  0.49848364  0.74305098  0.03951148    -0.78500
O52         O  0.49476081  0.70324914  0.05741104    -0.78700
C53         C  0.50543352  0.70410108  0.07503389     1.01900
O54         O  0.45468534  0.69507380  0.07963040    -0.86000
O55         O  0.43716701  0.72888357  0.09997605    -0.83100
C56         C  0.43351626  0.74796479  0.10459339     0.97400
O57         O  0.44551518  0.76300563  0.09804840    -0.83100
O58         O  0.44063529  0.76714792  0.05416509    -0.85700
C59         C  0.44115301  0.76065504  0.03502800     1.01900
O60         O  0.45380420  0.74580025  0.02936165    -0.78600
O61         O  0.44563016  0.70777051  0.04892162    -0.78700
C62         C  0.44045976  0.69739211  0.06550301     1.01900
Cr63       Cr  0.46671906  0.72058132  0.09443306     1.93700
Cr64       Cr  0.46569510  0.76515206  0.07331315     1.93200
Cr65       Cr  0.47279304  0.72517250  0.04565505     1.39100
O66         O  0.46830889  0.73707028  0.07089371    -1.23800
O67         O  0.07499880  0.70648241  0.46808861    -0.86000
O68         O  0.09499146  0.74213242  0.47496896    -0.83100
C69         C  0.08703097  0.75444438  0.46097268     0.97400
O70         O  0.06886528  0.76255382  0.46359942    -0.83100
O71         O  0.02845331  0.77008334  0.47817914    -0.85800
C72         C  0.01919056  0.75876299  0.46446350     1.01900
O73         O  0.02141116  0.73869274  0.46499372    -0.78500
O74         O  0.04064822  0.70013487  0.47048484    -0.78700
C75         C  0.05836566  0.69866858  0.46029842     1.01900
O76         O  0.06991982  0.69845374  0.51325492    -0.86000
O77         O  0.08921837  0.73669027  0.52058298    -0.83100
C78         C  0.09519923  0.75557638  0.51763676     0.97400
O79         O  0.08486229  0.76764039  0.50532352    -0.83100
O80         O  0.04284608  0.76734714  0.52061312    -0.85700
C81         C  0.02387528  0.76067797  0.52294101     1.01900
O82         O  0.01645986  0.74548534  0.51128904    -0.78600
O83         O  0.03709337  0.70794366  0.51953446    -0.78700
C84         C  0.05444258  0.69970968  0.52601248     1.01900
Cr85       Cr  0.08009834  0.72192247  0.49437003     1.93700
Cr86       Cr  0.05631387  0.76462860  0.49214343     1.93200
Cr87       Cr  0.03064650  0.72334835  0.49179279     1.39100
O88         O  0.05554391  0.73638195  0.49296525    -1.23800
O89         O  0.46536672  0.09993373  0.66639682    -0.86000
O90         O  0.45229324  0.12215304  0.70157963    -0.83100
C91         C  0.45097349  0.12752101  0.72088644     0.97400
O92         O  0.46461113  0.12158812  0.73461789    -0.83100
O93         O  0.45637392  0.07899777  0.74178566    -0.85800
C94         C  0.45350546  0.06006722  0.73543127     1.01900
O95         O  0.46403701  0.05254366  0.71966693    -0.78500
O96         O  0.45483999  0.07089227  0.68141572    -0.78700
C97         C  0.45027869  0.08724339  0.67042622     1.01900
O98         O  0.50892610  0.10882489  0.67859458    -0.86000
O99         O  0.49511344  0.13453689  0.70999992    -0.83100
C100        C  0.50924973  0.12976679  0.72349804     0.97400
O101        O  0.50938321  0.11165763  0.73228087    -0.83100
O102        O  0.50013052  0.07035529  0.74375124    -0.85700
C103        C  0.51129324  0.05772012  0.73291033     1.01900
O104        O  0.50952057  0.05709392  0.71270040    -0.78600
O105        O  0.50423276  0.07446311  0.67273434    -0.78700
C106        C  0.51583251  0.09144676  0.67132958     1.01900
Cr107      Cr  0.48047021  0.11442325  0.69032549     1.93700
Cr108      Cr  0.48268730  0.09554218  0.73581486     1.93200
Cr109      Cr  0.48302254  0.06562698  0.69676593     1.39100
O110        O  0.48202822  0.09158099  0.70773721    -1.23800
O111        O  0.67766880  0.49632044  0.08901076    -0.86000
O112        O  0.70886360  0.51718834  0.11036242    -0.83100
C113        C  0.72594603  0.50782692  0.10513468     0.97400
O114        O  0.73278383  0.50825449  0.08618683    -0.83100
O115        O  0.73505246  0.51434598  0.04247906    -0.85800
C116        C  0.72527051  0.49852322  0.03436098     1.01900
O117        O  0.70532198  0.49617146  0.03728148    -0.78500
O118        O  0.66536748  0.49921372  0.05628655    -0.78700
C119        C  0.66769336  0.48826198  0.07354174     1.01900
O120        O  0.65745604  0.53683296  0.07848495    -0.86000
O121        O  0.69047804  0.55692458  0.09723069    -0.83100
C122        C  0.70930207  0.56222476  0.10122167     0.97400
O123        O  0.72490081  0.55239351  0.09295439    -0.83100
O124        O  0.72303986  0.55808875  0.04991808    -0.85700
C125        C  0.71850171  0.55524388  0.03060990     1.01900
O126        O  0.70597815  0.54016523  0.02505893    -0.78600
O127        O  0.66820576  0.54740789  0.04734361    -0.78700
C128        C  0.65809047  0.55140831  0.06442636     1.01900
Cr129      Cr  0.68454190  0.52671528  0.09193623     1.93700
Cr130      Cr  0.72692394  0.53282513  0.06785188     1.93200
Cr131      Cr  0.68647170  0.52114681  0.04314597     1.39100
O132        O  0.69944088  0.52658865  0.06763720    -1.23800
O133        O  0.56725064  0.82877178  0.01980775    -0.86000
O134        O  0.59019715  0.79499461  0.01201513    -0.83100
C135        C  0.58377655  0.78267702  0.02682222     0.97400
O136        O  0.56558551  0.77403892  0.02576799    -0.83100
O137        O  0.52508842  0.76315662  0.01270134    -0.85800
C138        C  0.51354283  0.77448127  0.02445459     1.01900
O139        O  0.51419230  0.79467161  0.02281937    -0.78500
O140        O  0.53273037  0.83407965  0.01625842    -0.78700
C141        C  0.55025527  0.83635430  0.02689410     1.01900
O142        O  0.56036655  0.83707907  0.97547232    -0.86000
O143        O  0.58078349  0.79988906  0.96676867    -0.83100
C144        C  0.58755977  0.78125779  0.96897940     0.97400
O145        O  0.57999402  0.76897496  0.98307565    -0.83100
O146        O  0.53823052  0.76472351  0.96998602    -0.85700
C147        C  0.51911678  0.77023762  0.96687598     1.01900
O148        O  0.51069217  0.78560942  0.97735253    -0.78600
O149        O  0.52981397  0.82359378  0.96679493    -0.78700
C150        C  0.54665110  0.83349059  0.96122596     1.01900
Cr151      Cr  0.57268152  0.81402683  0.99343992     1.93700
Cr152      Cr  0.55208735  0.76993308  0.99776292     1.93200
Cr153      Cr  0.52361303  0.80941926  0.99568768     1.39100
O154        O  0.54918443  0.79791455  0.99574247    -1.23800
O155        O  0.80320395  0.43907571  0.01017793    -0.86000
O156        O  0.76750549  0.42111147  0.02811025    -0.83100
C157        C  0.74830034  0.41585068  0.03025192     0.97400
O158        O  0.73415566  0.42140074  0.01684138    -0.83100
O159        O  0.72996479  0.46426769  0.01998767    -0.85800
C160        C  0.73682485  0.48317793  0.02056402     1.01900
O161        O  0.75243520  0.48914469  0.00872412    -0.78500
O162        O  0.78978634  0.46916948  0.01915498    -0.78700
C163        C  0.80063585  0.45299688  0.02436943     1.01900
O164        O  0.78801624  0.42558640  0.96945281    -0.86000
O165        O  0.75611595  0.40351372  0.98785609    -0.83100
C166        C  0.74249722  0.40705841  0.97348366     0.97400
O167        O  0.73477667  0.42542836  0.97084589    -0.83100
O168        O  0.72677542  0.46868588  0.97523098    -0.85700
C169        C  0.73812497  0.47885358  0.96199766     1.01900
O170        O  0.75830212  0.47862747  0.96345629    -0.78600
O171        O  0.79722507  0.45955934  0.97072439    -0.78700
C172        C  0.79706401  0.44141126  0.96096517     1.01900
Cr173      Cr  0.77764728  0.42419168  0.99870406     1.93700
Cr174      Cr  0.73356468  0.44502755  0.99553178     1.93200
Cr175      Cr  0.77414743  0.47246476  0.99083273     1.39100
O176        O  0.76166030  0.44750445  0.99485808    -1.23800
O177        O  0.38306721  0.04244195  0.79880930    -0.86000
O178        O  0.36046037  0.03292894  0.76460580    -0.83100
C179        C  0.36717377  0.04792845  0.75280687     0.97400
O180        O  0.38518469  0.04659056  0.74381527    -0.83100
O181        O  0.42659159  0.03397444  0.73467920    -0.85800
C182        C  0.43769021  0.04613350  0.74623169     1.01900
O183        O  0.43597678  0.04525367  0.76645933    -0.78500
O184        O  0.41712810  0.03797729  0.80583374    -0.78700
C185        C  0.39998727  0.04910840  0.80720163     1.01900
O186        O  0.38982439  0.99829232  0.80853358    -0.86000
O187        O  0.36967005  0.98829656  0.77107570    -0.83100
C188        C  0.36342609  0.98959341  0.75204336     0.97400
O189        O  0.37146276  0.00319074  0.73940176    -0.83100
O190        O  0.41381844  0.99123321  0.73669343    -0.85700
C191        C  0.43294796  0.98903916  0.74269089     1.01900
O192        O  0.44069379  0.99998859  0.75812126    -0.78600
O193        O  0.42056083  0.98942541  0.79574694    -0.78700
C194        C  0.40369610  0.98411106  0.80568232     1.01900
Cr195      Cr  0.37773031  0.01542243  0.78466198     1.93700
Cr196      Cr  0.39928020  0.01871080  0.74082041     1.93200
Cr197      Cr  0.42682120  0.01802140  0.78131297     1.39100
O198        O  0.40151188  0.01740930  0.76902179    -1.23800
O199        O  0.00430827  0.61331034  0.80155165    -0.86000
O200        O  0.98967254  0.63754047  0.76972985    -0.83100
C201        C  0.00386014  0.63289632  0.75627578     0.97400
O202        O  0.00383848  0.61492543  0.74706144    -0.83100
O203        O  0.99491358  0.57265943  0.73771300    -0.85800
C204        C  0.00777857  0.56187305  0.74876720     1.01900
O205        O  0.00679072  0.56209012  0.76899552    -0.78500
O206        O  0.00068849  0.57911585  0.80866165    -0.78700
C207        C  0.01181109  0.59640451  0.80931532     1.01900
O208        O  0.96132015  0.60332800  0.81447357    -0.86000
O209        O  0.94700459  0.62482351  0.77881841    -0.83100
C210        C  0.94635784  0.63090431  0.75963132     0.97400
O211        O  0.95923484  0.62374580  0.74586132    -0.83100
O212        O  0.95067019  0.58074148  0.74155534    -0.85700
C213        C  0.94944852  0.56144653  0.74744951     1.01900
O214        O  0.96166309  0.55423743  0.76215379    -0.78600
O215        O  0.95209603  0.57335936  0.80030401    -0.78700
C216        C  0.94694744  0.58971937  0.81093937     1.01900
Cr217      Cr  0.97559069  0.61779661  0.79006325     1.93700
Cr218      Cr  0.97722332  0.59784659  0.74520562     1.93200
Cr219      Cr  0.98003740  0.56900460  0.78482134     1.39100
O220        O  0.97764425  0.59468321  0.77332072    -1.23800
O221        O  0.00059053  0.82166754  0.39580120    -0.86000
O222        O  0.98355374  0.79019168  0.37271440    -0.83100
C223        C  0.99837640  0.77752794  0.37735425     0.97400
O224        O  0.99901294  0.76846736  0.39536482    -0.83100
O225        O  0.99240917  0.75829661  0.43775761    -0.85800
C226        C  0.00474476  0.76939658  0.44917415     1.01900
O227        O  0.00397547  0.78959538  0.44856646    -0.78500
O228        O  0.99887150  0.82910421  0.43014415    -0.78700
C229        C  0.00902310  0.82962500  0.41218687     1.01900
O230        O  0.95895791  0.83593921  0.40795502    -0.86000
O231        O  0.94228878  0.80074390  0.38784745    -0.83100
C232        C  0.94029439  0.78154633  0.38243561     0.97400
O233        O  0.95349625  0.76741181  0.38838222    -0.83100
O234        O  0.94831094  0.76175788  0.43177110    -0.85700
C235        C  0.94760996  0.76838433  0.45083272     1.01900
O236        O  0.95910974  0.78413404  0.45703161    -0.78600
O237        O  0.95011321  0.82210848  0.43814246    -0.78700
C238        C  0.94484458  0.83285936  0.42190561     1.01900
Cr239      Cr  0.97140822  0.81100656  0.39303221     1.93700
Cr240      Cr  0.97343298  0.76618129  0.41329223     1.93200
Cr241      Cr  0.97771551  0.80605254  0.44167781     1.39100
O242        O  0.97411270  0.79431157  0.41630939    -1.23800
O243        O  0.80352800  0.02977533  0.57652046    -0.86000
O244        O  0.76797176  0.04390858  0.59696267    -0.83100
C245        C  0.74897573  0.04451999  0.60312603     0.97400
O246        O  0.73477163  0.03290389  0.59456458    -0.83100
O247        O  0.73241699  0.04299947  0.55195923    -0.85800
C248        C  0.73825349  0.04412026  0.53272494     1.01900
O249        O  0.75286684  0.03200786  0.52541085    -0.78500
O250        O  0.79080623  0.04072630  0.54636040    -0.78700
C251        C  0.80122324  0.04485561  0.56331628     1.01900
O252        O  0.78873342  0.98685351  0.58443052    -0.86000
O253        O  0.75639982  0.00098980  0.60788223    -0.83100
C254        C  0.74086553  0.98936165  0.60223721     0.97400
O255        O  0.73475502  0.98882143  0.58308121    -0.83100
O256        O  0.72704595  0.99930963  0.54133028    -0.85700
C257        C  0.73783784  0.98609846  0.53070389     1.01900
O258        O  0.75809801  0.98660881  0.53156259    -0.78600
O259        O  0.79750211  0.99126810  0.55064920    -0.78700
C260        C  0.79710590  0.97972018  0.56772202     1.01900
Cr261      Cr  0.77821222  0.01537084  0.58946688     1.93700
Cr262      Cr  0.73436963  0.01592985  0.56761844     1.93200
Cr263      Cr  0.77465973  0.01290420  0.54023855     1.39100
O264        O  0.76240575  0.01468403  0.56556389    -1.23800
O265        O  0.38783773  0.83719439  0.97131440    -0.86000
O266        O  0.36807997  0.80200300  0.95393554    -0.83100
C267        C  0.36349500  0.78260730  0.95131451     0.97400
O268        O  0.37028003  0.76831194  0.96400580    -0.83100
O269        O  0.41387163  0.76504307  0.95974510    -0.85800
C270        C  0.43292058  0.77172576  0.95991635     1.01900
O271        O  0.43858539  0.78678915  0.97257774    -0.78500
O272        O  0.41867079  0.82449318  0.96325800    -0.78700
C273        C  0.40241200  0.83497433  0.95763701     1.01900
O274        O  0.37561198  0.82169327  0.01314776    -0.86000
O275        O  0.35300994  0.78997570  0.99485126    -0.83100
C276        C  0.35713501  0.77602707  0.00875832     0.97400
O277        O  0.37536761  0.76757799  0.00979337    -0.83100
O278        O  0.41874952  0.76027280  0.00449374    -0.85700
C279        C  0.42796483  0.77138756  0.01860431     1.01900
O280        O  0.42711528  0.79156972  0.01786561    -0.78600
O281        O  0.40938237  0.83092065  0.01134939    -0.78700
C282        C  0.39159604  0.83049796  0.02160401     1.01900
Cr283      Cr  0.37315120  0.81168237  0.98346909     1.93700
Cr284      Cr  0.39459288  0.76751743  0.98467831     1.93200
Cr285      Cr  0.42168802  0.80805672  0.99086618     1.39100
O286        O  0.39668910  0.79567907  0.98621479    -1.23800
O287        O  0.79233377  0.61627212  0.96639796    -0.86000
O288        O  0.76064220  0.64206379  0.97795211    -0.83100
C289        C  0.74797189  0.63824465  0.96270265     0.97400
O290        O  0.73913276  0.62017400  0.96086661    -0.83100
O291        O  0.72428900  0.57889829  0.96886510    -0.85800
C292        C  0.73518522  0.56624351  0.95782563     1.01900
O293        O  0.75531587  0.56597660  0.95981454    -0.78500
O294        O  0.79550772  0.58130482  0.96853912    -0.78700
C295        C  0.79851634  0.59895550  0.95839179     1.01900
O296        O  0.80020951  0.60509059  0.01037435    -0.86000
O297        O  0.76444199  0.62799021  0.02146482    -0.83100
C298        C  0.74526188  0.63391451  0.02095559     0.97400
O299        O  0.73344191  0.62976264  0.00509535    -0.83100
O300        O  0.72531886  0.58743291  0.01257093    -0.85700
C301        C  0.73002566  0.56800789  0.01476233     1.01900
O302        O  0.74528296  0.55953710  0.00430673    -0.78600
O303        O  0.78411000  0.57520417  0.01675138    -0.78700
C304        C  0.79556671  0.59048112  0.02345383     1.01900
Cr305      Cr  0.77818380  0.62092715  0.99385281     1.93700
Cr306      Cr  0.73276450  0.60385329  0.98685857     1.93200
Cr307      Cr  0.77001099  0.57241562  0.98759735     1.39100
O308        O  0.76033516  0.59877880  0.98950307    -1.23800
O309        O  0.56066032  0.99681372  0.81394961    -0.86000
O310        O  0.58105349  0.97805510  0.78062901    -0.83100
C311        C  0.58639046  0.97451410  0.76166152     0.97400
O312        O  0.58205803  0.98750717  0.74663519    -0.83100
O313        O  0.53912527  0.98450124  0.73923309    -0.85800
C314        C  0.51985488  0.98467133  0.74499947     1.01900
O315        O  0.51356604  0.99696405  0.76003957    -0.78500
O316        O  0.53110876  0.98787144  0.79899386    -0.78700
C317        C  0.54675702  0.98264691  0.81061539     1.01900
O318        O  0.57511785  0.03760939  0.79837860    -0.86000
O319        O  0.59916080  0.01809691  0.76837341    -0.83100
C320        C  0.59601952  0.03195665  0.75407540     0.97400
O321        O  0.57813811  0.03346684  0.74501789    -0.83100
O322        O  0.53584167  0.02908108  0.73416420    -0.85700
C323        C  0.52496561  0.04241327  0.74455565     1.01900
O324        O  0.52438386  0.04174042  0.76482765    -0.78600
O325        O  0.54066404  0.03626270  0.80527020    -0.78700
C326        C  0.55868891  0.04625986  0.80591537     1.01900
Cr327      Cr  0.57719437  0.00782820  0.78912667     1.93700
Cr328      Cr  0.55871001  0.00886272  0.74345298     1.93200
Cr329      Cr  0.52917005  0.01535000  0.78213054     1.39100
O330        O  0.55475406  0.01071510  0.77142818    -1.23800
O331        O  0.96408406  0.43365456  0.81846218    -0.86000
O332        O  0.94684732  0.41255053  0.78459808    -0.83100
C333        C  0.94374003  0.40720350  0.76554889     0.97400
O334        O  0.95611411  0.41324274  0.75059119    -0.83100
O335        O  0.94936417  0.45571492  0.74490756    -0.85800
C336        C  0.94822470  0.47483851  0.75090746     1.01900
O337        O  0.96022744  0.48201392  0.76586346    -0.78500
O338        O  0.95279476  0.46281918  0.80447572    -0.78700
C339        C  0.94886803  0.44642227  0.81567214     1.01900
O340        O  0.00563675  0.42317402  0.80223096    -0.86000
O341        O  0.98799094  0.39872457  0.77176731    -0.83100
C342        C  0.00110750  0.40328899  0.75720255     0.97400
O343        O  0.00153684  0.42156009  0.74878445    -0.83100
O344        O  0.99321456  0.46399570  0.73914365    -0.85700
C345        C  0.00620349  0.47536978  0.74963379     1.01900
O346        O  0.00593293  0.47512377  0.76994242    -0.78600
O347        O  0.00228496  0.45727102  0.80998223    -0.78700
C348        C  0.01341706  0.43998035  0.80996431     1.01900
Cr349      Cr  0.97616855  0.41890510  0.79313951     1.93700
Cr350      Cr  0.97535351  0.43869694  0.74803716     1.93200
Cr351      Cr  0.98005906  0.46759065  0.78743045     1.39100
O352        O  0.97722111  0.44199481  0.77608734    -1.23800
O353        O  0.95102002  0.82529374  0.58648626    -0.86000
O354        O  0.96342643  0.79340889  0.61091517    -0.83100
C355        C  0.95063537  0.77903238  0.60471155     0.97400
O356        O  0.95344666  0.76962883  0.58702352    -0.83100
O357        O  0.96590382  0.75984637  0.54584747    -0.85800
C358        C  0.95120807  0.76966753  0.53641725     1.01900
O359        O  0.95067388  0.78986079  0.53703182    -0.78500
O360        O  0.95428364  0.83058785  0.55197680    -0.78700
C361        C  0.94314157  0.83165942  0.56918520     1.01900
O362        O  0.99501793  0.83818356  0.57869734    -0.86000
O363        O  0.00745917  0.80354906  0.60183289    -0.83100
C364        C  0.00756543  0.78475843  0.60876168     0.97400
O365        O  0.99632676  0.77044501  0.60007992    -0.83100
O366        O  0.00878160  0.76719699  0.55725107    -0.85700
C367        C  0.00936409  0.77210503  0.53759324     1.01900
O368        O  0.99636900  0.78577872  0.52981066    -0.78600
O369        O  0.00364244  0.82510461  0.54774964    -0.78700
C370        C  0.00889163  0.83566353  0.56428476     1.01900
Cr371      Cr  0.97941516  0.81397613  0.59244186     1.93700
Cr372      Cr  0.98109596  0.76900630  0.57245218     1.93200
Cr373      Cr  0.97653508  0.80773187  0.54338693     1.39100
O374        O  0.97919785  0.79702827  0.56930785    -1.23800
O375        O  0.78869431  0.99144090  0.39170542    -0.86000
O376        O  0.75731412  0.00827343  0.36870388    -0.83100
C377        C  0.74340212  0.99457339  0.37386379     0.97400
O378        O  0.73464225  0.99495546  0.39204546    -0.83100
O379        O  0.72598150  0.00315866  0.43479910    -0.85800
C380        C  0.73625556  0.98870847  0.44436868     1.01900
O381        O  0.75638026  0.98815882  0.44299402    -0.78500
O382        O  0.79633251  0.99228490  0.42593762    -0.78700
C383        C  0.79623342  0.98228673  0.40790480     1.01900
O384        O  0.80408573  0.03326298  0.40329004    -0.86000
O385        O  0.76962602  0.05010266  0.38237361    -0.83100
C386        C  0.75051383  0.05240799  0.37682399     0.97400
O387        O  0.73601459  0.03992363  0.38354787    -0.83100
O388        O  0.73270385  0.04703204  0.42678188    -0.85700
C389        C  0.73868388  0.04715250  0.44605754     1.01900
O390        O  0.75284841  0.03397513  0.45278368    -0.78600
O391        O  0.79134287  0.04135311  0.43424210    -0.78700
C392        C  0.80152676  0.04702264  0.41770984     1.01900
Cr393      Cr  0.77889546  0.02077616  0.38847511     1.93700
Cr394      Cr  0.73447993  0.02103775  0.40932258     1.93200
Cr395      Cr  0.77402848  0.01428974  0.43727969     1.39100
O396        O  0.76249093  0.01883707  0.41189854    -1.23800
O397        O  0.88446633  0.32421369  0.47161687    -0.86000
O398        O  0.86140764  0.29148125  0.48465201    -0.83100
C399        C  0.86772534  0.27822623  0.47081940     0.97400
O400        O  0.88557607  0.26903604  0.47271386    -0.83100
O401        O  0.92738646  0.26032978  0.48386041    -0.85800
C402        C  0.93639501  0.27093432  0.46930327     1.01900
O403        O  0.93453083  0.29099781  0.46878807    -0.78500
O404        O  0.91870674  0.33080948  0.47387271    -0.78700
C405        C  0.90118511  0.33131389  0.46314044     1.01900
O406        O  0.89384158  0.33633719  0.51574929    -0.86000
O407        O  0.87189641  0.30069028  0.52859025    -0.83100
C408        C  0.86566684  0.28161005  0.52863735     0.97400
O409        O  0.87382703  0.26807304  0.51620411    -0.83100
O410        O  0.91658709  0.26614184  0.52730997    -0.85700
C411        C  0.93605961  0.27143411  0.52758197     1.01900
O412        O  0.94341286  0.28533255  0.51441288    -0.78600
O413        O  0.92526306  0.32392533  0.52305152    -0.78700
C414        C  0.90869327  0.33364855  0.52917572     1.01900
Cr415      Cr  0.87987772  0.31222433  0.50026104     1.93700
Cr416      Cr  0.90089569  0.26799734  0.49998823     1.93200
Cr417      Cr  0.92876185  0.30760253  0.49537793     1.39100
O418        O  0.90329447  0.29607118  0.49873861    -1.23800
O419        O  0.50830076  0.32464242  0.88901407    -0.86000
O420        O  0.49201316  0.29335925  0.86509136    -0.83100
C421        C  0.50619293  0.27987843  0.86963288     0.97400
O422        O  0.50692917  0.27137558  0.88792662    -0.83100
O423        O  0.49973476  0.26166034  0.93069380    -0.85800
C424        C  0.51261069  0.27270439  0.94159389     1.01900
O425        O  0.51211568  0.29293675  0.94064079    -0.78500
O426        O  0.50578815  0.33278853  0.92301437    -0.78700
C427        C  0.51641048  0.33283171  0.90542683     1.01900
O428        O  0.46612669  0.33892674  0.90015903    -0.86000
O429        O  0.45036528  0.30392175  0.87959783    -0.83100
C430        C  0.44840154  0.28473036  0.87426665     0.97400
O431        O  0.46147781  0.27056991  0.88050273    -0.83100
O432        O  0.45588876  0.26506781  0.92397118    -0.85700
C433        C  0.45569532  0.27144490  0.94311906     1.01900
O434        O  0.46736221  0.28700895  0.94929227    -0.78600
O435        O  0.45726009  0.32500461  0.93039812    -0.78700
C436        C  0.45198244  0.33589732  0.91413822     1.01900
Cr437      Cr  0.47930765  0.31411763  0.88542429     1.93700
Cr438      Cr  0.48114495  0.26935952  0.90573233     1.93200
Cr439      Cr  0.48530496  0.30921464  0.93407219     1.39100
O440        O  0.48177258  0.29747106  0.90868467    -1.23800
O441        O  0.90374257  0.37830495  0.67232059    -0.86000
O442        O  0.92168279  0.34690594  0.69568981    -0.83100
C443        C  0.90982474  0.34796427  0.71219416     0.97400
O444        O  0.89266355  0.33781150  0.71332237    -0.83100
O445        O  0.85396365  0.32488757  0.70069666    -0.85800
C446        C  0.84809542  0.34402834  0.70256794     1.01900
O447        O  0.85052991  0.35629816  0.68661327    -0.78500
O448        O  0.87298306  0.37901166  0.65548515    -0.78700
C449        C  0.88899307  0.38889198  0.66384741     1.01900
O450        O  0.90580654  0.35374785  0.63348689    -0.86000
O451        O  0.92111474  0.32095417  0.65641527    -0.83100
C452        C  0.91988991  0.30469252  0.66803502     0.97400
O453        O  0.91287692  0.30628275  0.68685115    -0.83100
O454        O  0.87393838  0.29696356  0.67064678    -0.85700
C455        C  0.85627896  0.29826083  0.66135514     1.01900
O456        O  0.84808404  0.31694662  0.65827926    -0.78600
O457        O  0.87371464  0.34002921  0.62898439    -0.78700
C458        C  0.89141642  0.34627423  0.62118100     1.01900
Cr459      Cr  0.91140216  0.34906063  0.66506861     1.93700
Cr460      Cr  0.88362864  0.31788860  0.69143380     1.93200
Cr461      Cr  0.86261898  0.34737439  0.65824329     1.39100
O462        O  0.88585699  0.33823069  0.67130484    -1.23800
O463        O  0.82680076  0.14743103  0.57552942    -0.86000
O464        O  0.79008579  0.16647804  0.56395308    -0.83100
C465        C  0.77334409  0.17729880  0.56550051     0.97400
O466        O  0.77423377  0.19617764  0.57252748    -0.83100
O467        O  0.77021886  0.18164188  0.61241857    -0.85800
C468        C  0.77382768  0.17086050  0.62892669     1.01900
O469        O  0.79308152  0.16907023  0.63598848    -0.78500
O470        O  0.81464833  0.14165285  0.60783159    -0.78700
C471        C  0.81956014  0.13448579  0.58941676     1.01900
O472        O  0.84748123  0.18868286  0.57531095    -0.86000
O473        O  0.81168399  0.20752721  0.55867713    -0.83100
C474        C  0.81223015  0.22488205  0.56918743     0.97400
O475        O  0.80645908  0.22535957  0.58827733    -0.83100
O476        O  0.79832343  0.21377237  0.62875473    -0.85700
C477        C  0.81765748  0.21610498  0.63385480     1.01900
O478        O  0.83019526  0.20045122  0.63086824    -0.78600
O479        O  0.85224635  0.17113490  0.60546874    -0.78700
C480        C  0.86003089  0.18085136  0.58903695     1.01900
Cr481      Cr  0.81833526  0.17807163  0.57020253     1.93700
Cr482      Cr  0.78891805  0.20287922  0.60021834     1.93200
Cr483      Cr  0.82177609  0.17144636  0.61885963     1.39100
O484        O  0.80982879  0.18398338  0.59657799    -1.23800
O485        O  0.84631252  0.43351387  0.83693487    -0.86000
O486        O  0.82515104  0.44355158  0.80062290    -0.83100
C487        C  0.81278327  0.44277708  0.78484154     0.97400
O488        O  0.79434510  0.43483011  0.78668902    -0.83100
O489        O  0.81107658  0.39602603  0.78251679    -0.85800
C490        C  0.82198000  0.37957622  0.78562752     1.01900
O491        O  0.82454263  0.37247448  0.80488940    -0.78500
O492        O  0.85231961  0.40083696  0.82612535    -0.78700
C493        C  0.85931092  0.41943213  0.83059742     1.01900
O494        O  0.80642120  0.43340521  0.85922215    -0.86000
O495        O  0.78542538  0.44793334  0.82406531    -0.83100
C496        C  0.76835836  0.43708002  0.82611278     0.97400
O497        O  0.76757577  0.41789408  0.82047969    -0.83100
O498        O  0.78139373  0.37778346  0.81115366    -0.85700
C499        C  0.77883545  0.37318404  0.83058081     1.01900
O500        O  0.79423435  0.37699959  0.84326477    -0.78600
O501        O  0.82396495  0.40334939  0.86400575    -0.78700
C502        C  0.81485444  0.42004792  0.87168260     1.01900
Cr503      Cr  0.81535858  0.43777325  0.82957303     1.93700
Cr504      Cr  0.78989187  0.40693545  0.80178990     1.93200
Cr505      Cr  0.82283507  0.38948023  0.83381797     1.39100
O506        O  0.80957204  0.41128025  0.82194510    -1.23800
O507        O  0.61878121  0.36064170  0.91064910    -0.86000
O508        O  0.63600164  0.32386216  0.92569090    -0.83100
C509        C  0.64760087  0.30753637  0.92605938     0.97400
O510        O  0.66731878  0.30925951  0.92255313    -0.83100
O511        O  0.65803494  0.30179242  0.88152021    -0.85800
C512        C  0.64858950  0.30427436  0.86399021     1.01900
O513        O  0.64692733  0.32316146  0.85581270    -0.78500
O514        O  0.61705453  0.34642893  0.87884891    -0.78700
C515        C  0.60777170  0.35246775  0.89583900     1.01900
O516        O  0.65920824  0.38099728  0.91508368    -0.86000
O517        O  0.67538474  0.34606853  0.93556928    -0.83100
C518        C  0.69385616  0.34773632  0.92753289     0.97400
O519        O  0.69751379  0.34120596  0.90891706    -0.83100
O520        O  0.69107353  0.32950011  0.86748188    -0.85700
C521        C  0.69318835  0.34802873  0.85991204     1.01900
O522        O  0.67751388  0.36081565  0.86060223    -0.78600
O523        O  0.64609050  0.38434361  0.88248322    -0.78700
C524        C  0.65341354  0.39288738  0.89981244     1.01900
Cr525      Cr  0.64809540  0.35211675  0.92004819     1.93700
Cr526      Cr  0.67716726  0.32203556  0.89510428     1.93200
Cr527      Cr  0.64763301  0.35306618  0.87080374     1.39100
O528        O  0.65760300  0.34264339  0.89504304    -1.23800
O529        O  0.59048296  0.14534078  0.83236338    -0.86000
O530        O  0.61599890  0.16552057  0.80233045    -0.83100
C531        C  0.61951072  0.17715591  0.78607263     0.97400
O532        O  0.61566793  0.19681025  0.78765192    -0.83100
O533        O  0.57530763  0.18810271  0.77585563    -0.85800
C534        C  0.55624135  0.18234994  0.77706544     1.01900
O535        O  0.54545502  0.18511636  0.79397532    -0.78500
O536        O  0.56030550  0.15030490  0.81514474    -0.78700
C537        C  0.57379798  0.13768321  0.82300139     1.01900
O538        O  0.59401154  0.18400111  0.86030527    -0.86000
O539        O  0.62159633  0.20431981  0.83183896    -0.83100
C540        C  0.61551640  0.22372453  0.82840869     0.97400
O541        O  0.59948106  0.22740678  0.81698615    -0.83100
O542        O  0.55967623  0.22260553  0.80179575    -0.85700
C543        C  0.55185058  0.22471424  0.82024856     1.01900
O544        O  0.55088279  0.20919204  0.83295604    -0.78600
O545        O  0.56117611  0.17330694  0.85494422    -0.78700
C546        C  0.57545952  0.18013063  0.86758587     1.01900
Cr547      Cr  0.60446127  0.17561918  0.83079234     1.93700
Cr548      Cr  0.58716662  0.20721209  0.79705448     1.93200
Cr549      Cr  0.55629170  0.18009657  0.82381024     1.39100
O550        O  0.58276058  0.18762450  0.81754462    -1.23800
O551        O  0.61491481  0.12057829  0.66012650    -0.86000
O552        O  0.64251987  0.14723243  0.68382358    -0.83100
C553        C  0.64382918  0.13952181  0.70298198     0.97400
O554        O  0.65344030  0.12223078  0.70597075    -0.83100
O555        O  0.66992984  0.08300244  0.70042530    -0.85800
C556        C  0.65166046  0.07450985  0.70038870     1.01900
O557        O  0.64024630  0.07472172  0.68390384    -0.78500
O558        O  0.62026779  0.08811959  0.64809448    -0.78700
C559        C  0.60754380  0.10239326  0.65473587     1.01900
O560        O  0.64461433  0.11941315  0.62300461    -0.86000
O561        O  0.67386544  0.14310829  0.64682912    -0.83100
C562        C  0.68904784  0.14569657  0.66000759     0.97400
O563        O  0.68564562  0.14091429  0.67931047    -0.83100
O564        O  0.69866867  0.10115979  0.66957644    -0.85700
C565        C  0.69807557  0.08251919  0.66243111     1.01900
O566        O  0.68076117  0.07185852  0.66210398    -0.78600
O567        O  0.66166541  0.08919579  0.62711044    -0.78700
C568        C  0.65452692  0.10340506  0.61484172     1.01900
Cr569      Cr  0.64479451  0.13138798  0.65425484     1.93700
Cr570      Cr  0.67554957  0.11163206  0.68721057     1.93200
Cr571      Cr  0.65117888  0.08280740  0.65599980     1.39100
O572        O  0.65692059  0.10866400  0.66571549    -1.23800
O573        O  0.00868742  0.20826480  0.59252017    -0.86000
O574        O  0.99330301  0.23913086  0.61726364    -0.83100
C575        C  0.00595144  0.25400549  0.61209313     0.97400
O576        O  0.00469404  0.26319368  0.59412191    -0.83100
O577        O  0.99419566  0.27267614  0.55181881    -0.85800
C578        C  0.00813546  0.26265821  0.54130648     1.01900
O579        O  0.00921009  0.24253988  0.54275010    -0.78500
O580        O  0.00523982  0.20194511  0.55819467    -0.78700
C581        C  0.01656247  0.20154758  0.57533497     1.01900
O582        O  0.96542312  0.19366697  0.58306149    -0.86000
O583        O  0.95070571  0.22733445  0.60616181    -0.83100
C584        C  0.94858449  0.24630970  0.61217876     0.97400
O585        O  0.96043765  0.26107293  0.60489054    -0.83100
O586        O  0.95075060  0.26487841  0.56183349    -0.85700
C587        C  0.95072363  0.26023786  0.54218426     1.01900
O588        O  0.96399050  0.24678830  0.53462937    -0.78600
O589        O  0.95638386  0.20753413  0.55269799    -0.78700
C590        C  0.95124480  0.19664188  0.56899745     1.01900
Cr591      Cr  0.97950418  0.21819807  0.59777955     1.93700
Cr592      Cr  0.97774209  0.26332994  0.57808284     1.93200
Cr593      Cr  0.98338619  0.22481316  0.54887342     1.39100
O594        O  0.98010958  0.23541846  0.57479146    -1.23800
O595        O  0.16963596  0.99551447  0.58548744    -0.86000
O596        O  0.20407761  0.00284900  0.60845028    -0.83100
C597        C  0.21631382  0.98852001  0.60135853     0.97400
O598        O  0.22569302  0.99083618  0.58362403    -0.83100
O599        O  0.23519081  0.00356038  0.54248025    -0.85800
C600        C  0.22355546  0.99114361  0.53173199     1.01900
O601        O  0.20343140  0.99258199  0.53308729    -0.78500
O602        O  0.16438472  0.99969191  0.55101456    -0.78700
C603        C  0.16239443  0.98852513  0.56811881     1.01900
O604        O  0.16275711  0.04121412  0.57996373    -0.86000
O605        O  0.20009823  0.04804889  0.60191776    -0.83100
C606        C  0.21911463  0.04572592  0.60795686     0.97400
O607        O  0.23124289  0.03314471  0.59808418    -0.83100
O608        O  0.23349177  0.04667612  0.55540027    -0.85700
C609        C  0.22727149  0.04916644  0.53626318     1.01900
O610        O  0.21213613  0.03791382  0.52849205    -0.78600
O611        O  0.17510556  0.04834749  0.54822768    -0.78700
C612        C  0.16600418  0.05461329  0.56522276     1.01900
Cr613      Cr  0.18522146  0.02199195  0.59174708     1.93700
Cr614      Cr  0.22911598  0.01877516  0.56984265     1.93200
Cr615      Cr  0.18898863  0.01979589  0.54215892     1.39100
O616        O  0.20098482  0.02028211  0.56778878    -1.23800
O617        O  0.29217209  0.11545647  0.46703120    -0.86000
O618        O  0.25932763  0.13874344  0.47867134    -0.83100
C619        C  0.24585127  0.13296832  0.46479439     0.97400
O620        O  0.23680355  0.11481161  0.46604480    -0.83100
O621        O  0.22754333  0.07241998  0.47730921    -0.85800
C622        C  0.23814642  0.06256973  0.46344373     1.01900
O623        O  0.25846049  0.06387342  0.46367508    -0.78500
O624        O  0.29903350  0.08129380  0.47025101    -0.78700
C625        C  0.30047768  0.09886883  0.45972122     1.01900
O626        O  0.30347364  0.10696021  0.51057751    -0.86000
O627        O  0.26731440  0.12868744  0.52277850    -0.83100
C628        C  0.24827132  0.13482542  0.52184163     0.97400
O629        O  0.23508737  0.12573563  0.50961132    -0.83100
O630        O  0.23268560  0.08322503  0.52082324    -0.85700
C631        C  0.23858327  0.06398593  0.52195747     1.01900
O632        O  0.25274821  0.05664887  0.50933873    -0.78600
O633        O  0.29057034  0.07604067  0.51909611    -0.78700
C634        C  0.30059817  0.09282373  0.52461489     1.01900
Cr635      Cr  0.27946243  0.12036629  0.49486037     1.93700
Cr636      Cr  0.23524375  0.09893483  0.49343201     1.93200
Cr637      Cr  0.27501571  0.07123863  0.49075567     1.39100
O638        O  0.26331818  0.09670854  0.49300453    -1.23800
O639        O  0.06502984  0.34085482  0.51078622    -0.86000
O640        O  0.08520081  0.30652321  0.52839836    -0.83100
C641        C  0.09031125  0.28743384  0.53148272     0.97400
O642        O  0.08415208  0.27263678  0.51897365    -0.83100
O643        O  0.04140265  0.26746366  0.52480846    -0.85800
C644        C  0.02253956  0.27412101  0.52642219     1.01900
O645        O  0.01564995  0.28928135  0.51455281    -0.78500
O646        O  0.03525599  0.32757284  0.52143830    -0.78700
C647        C  0.05157632  0.33871778  0.52558678     1.01900
O648        O  0.07567357  0.32435833  0.46936178    -0.86000
O649        O  0.09961347  0.29369601  0.48727702    -0.83100
C650        C  0.09517272  0.27947576  0.47372577     0.97400
O651        O  0.07684042  0.27120060  0.47309176    -0.83100
O652        O  0.03436177  0.26194953  0.48038662    -0.85700
C653        C  0.02267398  0.27255248  0.46780694     1.01900
O654        O  0.02259084  0.29280769  0.46864775    -0.78600
O655        O  0.04162461  0.33249232  0.47196102    -0.78700
C656        C  0.05925393  0.33249610  0.46127937     1.01900
Cr657      Cr  0.07939352  0.31521344  0.49889914     1.93700
Cr658      Cr  0.05909056  0.27053178  0.49907252     1.93200
Cr659      Cr  0.03060323  0.31029886  0.49438009     1.39100
O660        O  0.05604800  0.29856469  0.49742920    -1.23800
O661        O  0.34534208  0.09737570  0.66799375    -0.86000
O662        O  0.30964277  0.08672690  0.69080665    -0.83100
C663        C  0.31226441  0.09871192  0.70698086     0.97400
O664        O  0.30538217  0.11743420  0.70731026    -0.83100
O665        O  0.29948025  0.15724968  0.69185309    -0.85800
C666        C  0.31904513  0.16031305  0.69548426     1.01900
O667        O  0.33212732  0.15503712  0.68092728    -0.78500
O668        O  0.35227276  0.12765309  0.65161343    -0.78700
C669        C  0.35881491  0.11020941  0.66018343     1.01900
O670        O  0.32108945  0.09797352  0.62880944    -0.86000
O671        O  0.28540000  0.08972430  0.65127477    -0.83100
C672        C  0.26987760  0.09073229  0.66387692     0.97400
O673        O  0.27126527  0.10134372  0.68094512    -0.83100
O674        O  0.27042580  0.13999954  0.66120253    -0.85700
C675        C  0.27582311  0.15608439  0.65039571     1.01900
O676        O  0.29560863  0.16170843  0.64913412    -0.78600
O677        O  0.31531263  0.13201171  0.62240186    -0.78700
C678        C  0.31685563  0.11286185  0.61573174     1.01900
Cr679      Cr  0.31486071  0.09499705  0.66017612     1.93700
Cr680      Cr  0.28820818  0.12847791  0.68390393     1.93200
Cr681      Cr  0.32290710  0.14295845  0.65201194     1.39100
O682        O  0.30885666  0.12211800  0.66509006    -1.23800
O683        O  0.08956570  0.39134378  0.65189470    -0.86000
O684        O  0.11459582  0.37011598  0.68250797    -0.83100
C685        C  0.11743076  0.35752095  0.69822872     0.97400
O686        O  0.11172634  0.33836273  0.69620957    -0.83100
O687        O  0.07070617  0.34803446  0.70665309    -0.85800
C688        C  0.05146132  0.35295866  0.70460860     1.01900
O689        O  0.04197177  0.35085234  0.68679030    -0.78500
O690        O  0.05856354  0.38602673  0.66777018    -0.78700
C691        C  0.07267934  0.39871110  0.66102560     1.01900
O692        O  0.09313512  0.35307031  0.62323994    -0.86000
O693        O  0.11972136  0.33185928  0.65297826    -0.83100
C694        C  0.11288051  0.31259231  0.65613726     0.97400
O695        O  0.09557971  0.30954334  0.66562210    -0.83100
O696        O  0.05580192  0.31453334  0.67896451    -0.85700
C697        C  0.04973520  0.31238803  0.65986360     1.01900
O698        O  0.04952814  0.32806714  0.64730665    -0.78600
O699        O  0.06076900  0.36510604  0.62758287    -0.78700
C700        C  0.07502383  0.35787538  0.61533397     1.01900
Cr701      Cr  0.10307947  0.36088548  0.65337841     1.93700
Cr702      Cr  0.08325843  0.32923590  0.68552381     1.93200
Cr703      Cr  0.05447645  0.35686950  0.65789228     1.39100
O704        O  0.08048195  0.34923407  0.66545766    -1.23800
O705        O  0.12049184  0.18006613  0.57194787    -0.86000
O706        O  0.13882118  0.21676005  0.55922252    -0.83100
C707        C  0.14916810  0.23383171  0.56131818     0.97400
O708        O  0.16875691  0.23324856  0.56606803    -0.83100
O709        O  0.15742218  0.23674594  0.60656942    -0.85800
C710        C  0.14882494  0.23284560  0.62415034     1.01900
O711        O  0.14712708  0.21336901  0.63074782    -0.78500
O712        O  0.11747652  0.19162778  0.60489519    -0.78700
C713        C  0.10879210  0.18647599  0.58722132     1.01900
O714        O  0.16180952  0.15966836  0.56862497    -0.86000
O715        O  0.17920328  0.19595086  0.55136103    -0.83100
C716        C  0.19736187  0.19532584  0.56043520     0.97400
O717        O  0.19955615  0.20143446  0.57934419    -0.83100
O718        O  0.19028769  0.20864900  0.62075218    -0.85700
C719        C  0.19310102  0.18914315  0.62491713     1.01900
O720        O  0.17748302  0.17641989  0.62269630    -0.78600
O721        O  0.14645131  0.15444335  0.59983732    -0.78700
C722        C  0.15543686  0.14694057  0.58294638     1.01900
Cr723      Cr  0.15076743  0.18873575  0.56448501     1.93700
Cr724      Cr  0.17770340  0.21840851  0.59295665     1.93200
Cr725      Cr  0.14786586  0.18481823  0.61334157     1.39100
O726        O  0.15860552  0.19719817  0.59037830    -1.23800
O727        O  0.35139260  0.35745914  0.88102770    -0.86000
O728        O  0.33026564  0.32847173  0.85446066    -0.83100
C729        C  0.31826447  0.31274366  0.85016900     0.97400
O730        O  0.29876888  0.31430890  0.85490212    -0.83100
O731        O  0.30880498  0.29901129  0.89379236    -0.85800
C732        C  0.31615616  0.29916121  0.91236116     1.01900
O733        O  0.31384731  0.31516240  0.92460594    -0.78500
O734        O  0.34769435  0.33843613  0.91037925    -0.78700
C735        C  0.35972064  0.34780782  0.89721577     1.01900
O736        O  0.31267245  0.38443193  0.88047437    -0.86000
O737        O  0.29130292  0.35732213  0.85193264    -0.83100
C738        C  0.27226072  0.35382694  0.85912550     0.97400
O739        O  0.26973038  0.34268129  0.87549966    -0.83100
O740        O  0.27524719  0.32398302  0.91331724    -0.85700
C741        C  0.27339023  0.34195171  0.92223967     1.01900
O742        O  0.28910194  0.35432894  0.92357475    -0.78600
O743        O  0.32376971  0.37749297  0.91312184    -0.78700
C744        C  0.31715233  0.39074773  0.89926143     1.01900
Cr745      Cr  0.32064151  0.35591465  0.86805599     1.93700
Cr746      Cr  0.28963186  0.32137742  0.88473188     1.93200
Cr747      Cr  0.31795669  0.34593963  0.91614685     1.39100
O748        O  0.30958826  0.34133080  0.88958689    -1.23800
O749        O  0.11424799  0.41113457  0.82925509    -0.86000
O750        O  0.13659746  0.38958661  0.79697167    -0.83100
C751        C  0.14942369  0.38787011  0.78137548     0.97400
O752        O  0.16848791  0.39401203  0.78379947    -0.83100
O753        O  0.15862125  0.43481107  0.77636236    -0.85800
C754        C  0.14992577  0.45240899  0.77939402     1.01900
O755        O  0.15174189  0.46217773  0.79715651    -0.78500
O756        O  0.11784545  0.44382765  0.81681805    -0.78700
C757        C  0.10588162  0.42869529  0.82260528     1.01900
O758        O  0.15210625  0.40640452  0.85732350    -0.86000
O759        O  0.17433596  0.38298647  0.82657762    -0.83100
C760        C  0.19347484  0.39047951  0.82470236     0.97400
O761        O  0.19642323  0.40850688  0.81671418    -0.83100
O762        O  0.19045459  0.44920261  0.80601591    -0.85700
C763        C  0.19255605  0.45251747  0.82578343     1.01900
O764        O  0.17614656  0.45416229  0.83709810    -0.78600
O765        O  0.14080844  0.43944729  0.85656037    -0.78700
C766        C  0.14733541  0.42344183  0.86717845     1.01900
Cr767      Cr  0.14504664  0.39895775  0.82679638     1.93700
Cr768      Cr  0.17701649  0.42180224  0.79711082     1.93200
Cr769      Cr  0.14742381  0.44826083  0.82609334     1.39100
O770        O  0.15621881  0.42286793  0.81677566    -1.23800
O771        O  0.36983902  0.18764897  0.85768260    -0.86000
O772        O  0.34548059  0.21044212  0.82726394    -0.83100
C773        C  0.35381283  0.22923526  0.82528920     0.97400
O774        O  0.37170405  0.23126998  0.81645193    -0.83100
O775        O  0.41158893  0.22287933  0.80260245    -0.85800
C776        C  0.41694903  0.22497710  0.82188975     1.01900
O777        O  0.41751328  0.20888093  0.83378017    -0.78500
O778        O  0.40233712  0.17494428  0.85509672    -0.78700
C779        C  0.38737600  0.18227736  0.86655107     1.01900
O780        O  0.37117983  0.14927087  0.83031611    -0.86000
O781        O  0.34934406  0.17193176  0.79778838    -0.83100
C782        C  0.34720160  0.18507639  0.78237442     0.97400
O783        O  0.35383378  0.20389853  0.78503914    -0.83100
O784        O  0.39365486  0.19111476  0.77487943    -0.85700
C785        C  0.41127246  0.18202908  0.77703348     1.01900
O786        O  0.42186232  0.18335520  0.79438664    -0.78600
O787        O  0.40332269  0.15093665  0.81623963    -0.78700
C788        C  0.38804610  0.13994823  0.82336502     1.01900
Cr789      Cr  0.36030485  0.18044764  0.82744343     1.93700
Cr790      Cr  0.38288847  0.21079510  0.79614819     1.93200
Cr791      Cr  0.40954435  0.18041540  0.82413283     1.39100
O792        O  0.38413803  0.19030408  0.81610602    -1.23800
O793        O  0.30468494  0.49552555  0.90668789    -0.86000
O794        O  0.27146245  0.47667072  0.88555888    -0.83100
C795        C  0.25256345  0.47315926  0.87995680     0.97400
O796        O  0.23739589  0.48508654  0.88614226    -0.83100
O797        O  0.23314092  0.47898203  0.92927313    -0.85800
C798        C  0.23886433  0.47946409  0.94858060     1.01900
O799        O  0.25288028  0.49277323  0.95520538    -0.78500
O800        O  0.29135004  0.48552266  0.93676967    -0.78700
C801        C  0.30230024  0.48099538  0.92046657     1.01900
O802        O  0.28785655  0.53639595  0.89415207    -0.86000
O803        O  0.25742918  0.51740648  0.87073898    -0.83100
C804        C  0.24280875  0.53038226  0.87538521     0.97400
O805        O  0.23417073  0.53034332  0.89358231    -0.83100
O806        O  0.22550685  0.52261819  0.93660615    -0.85700
C807        C  0.23565742  0.53662414  0.94709666     1.01900
O808        O  0.25576835  0.53789632  0.94555102    -0.78600
O809        O  0.29584088  0.53441486  0.92838019    -0.78700
C810        C  0.29536892  0.54498875  0.91068365     1.01900
Cr811      Cr  0.27930133  0.50649373  0.89112347     1.93700
Cr812      Cr  0.23461974  0.50461027  0.91139813     1.93200
Cr813      Cr  0.27380565  0.51233304  0.93974460     1.39100
O814        O  0.26250203  0.50779949  0.91429090    -1.23800
O815        O  0.28510901  0.92273029  0.51399541    -0.86000
O816        O  0.25327497  0.89899474  0.49787354    -0.83100
C817        C  0.23979944  0.90374415  0.51201033     0.97400
O818        O  0.23111077  0.92189640  0.51215248    -0.83100
O819        O  0.22273350  0.96468559  0.50445630    -0.85800
C820        C  0.23400789  0.97615873  0.51665513     1.01900
O821        O  0.25419665  0.97573643  0.51540594    -0.78500
O822        O  0.29333790  0.95676676  0.51113910    -0.78700
C823        C  0.29319774  0.93929684  0.52202097     1.01900
O824        O  0.29980189  0.93258526  0.47124156    -0.86000
O825        O  0.26444201  0.91257687  0.45586958    -0.83100
C826        C  0.24525323  0.90718509  0.45402734     0.97400
O827        O  0.23101916  0.91424395  0.46657939    -0.83100
O828        O  0.22691622  0.95764175  0.45998087    -0.85700
C829        C  0.23437422  0.97635599  0.45825616     1.01900
O830        O  0.24981554  0.98275436  0.46993054    -0.78600
O831        O  0.28696023  0.96291547  0.46175235    -0.78700
C832        C  0.29725976  0.94637998  0.45677793     1.01900
Cr833      Cr  0.27454932  0.91877184  0.48484361     1.93700
Cr834      Cr  0.23018895  0.93968971  0.48589524     1.93200
Cr835      Cr  0.27077770  0.96762617  0.48935013     1.39100
O836        O  0.25839174  0.94230690  0.48671750    -1.23800
O837        O  0.36354414  0.88543190  0.81887265    -0.86000
O838        O  0.33839369  0.85527558  0.79759043    -0.83100
C839        C  0.34569336  0.85220786  0.77858107     0.97400
O840        O  0.36241996  0.84167395  0.77599899    -0.83100
O841        O  0.40341172  0.83406625  0.78156350    -0.85800
C842        C  0.40727608  0.85385809  0.78020762     1.01900
O843        O  0.40833669  0.86507185  0.79685438    -0.78500
O844        O  0.39470773  0.88261816  0.83397901    -0.78700
C845        C  0.38088686  0.89414233  0.82492315     1.01900
O846        O  0.36723706  0.85722861  0.85769469    -0.86000
O847        O  0.34415901  0.82576332  0.83602069    -0.83100
C848        C  0.34319156  0.80890402  0.82472277     0.97400
O849        O  0.35011376  0.80957617  0.80579661    -0.83100
O850        O  0.39190819  0.80381965  0.81510832    -0.85700
C851        C  0.41083147  0.80754311  0.82045805     1.01900
O852        O  0.41851588  0.82610034  0.81823036    -0.78600
O853        O  0.39867326  0.84198180  0.85395793    -0.78700
C854        C  0.38412250  0.84892702  0.86603371     1.01900
Cr855      Cr  0.35457768  0.85513302  0.82686741     1.93700
Cr856      Cr  0.37704080  0.82367283  0.79621820     1.93200
Cr857      Cr  0.40334227  0.85317559  0.82507291     1.39100
O858        O  0.37801748  0.84401572  0.81615994    -1.23800
O859        O  0.31789337  0.64606297  0.87962089    -0.86000
O860        O  0.28726402  0.66751486  0.85567276    -0.83100
C861        C  0.27134431  0.67971892  0.85339231     0.97400
O862        O  0.27332687  0.69898051  0.85877898    -0.83100
O863        O  0.26179432  0.68790546  0.89901345    -0.85800
C864        C  0.26346196  0.68039284  0.91753231     1.01900
O865        O  0.28064538  0.68264882  0.92805619    -0.78500
O866        O  0.30107547  0.64870822  0.91037720    -0.78700
C867        C  0.30895683  0.63715300  0.89592136     1.01900
O868        O  0.34533820  0.68498414  0.87803713    -0.86000
O869        O  0.31664182  0.70655988  0.85153633    -0.83100
C870        C  0.31413373  0.72552676  0.85919934     0.97400
O871        O  0.30353314  0.72796704  0.87604449    -0.83100
O872        O  0.28954373  0.72121502  0.91591508    -0.85700
C873        C  0.30872764  0.72306265  0.92184596     1.01900
O874        O  0.32011017  0.70671811  0.92355973    -0.78600
O875        O  0.34104032  0.67177841  0.91024976    -0.78700
C876        C  0.35315205  0.67983671  0.89611169     1.01900
Cr877      Cr  0.31590378  0.67698159  0.86742566     1.93700
Cr878      Cr  0.28332637  0.70755119  0.88769503     1.93200
Cr879      Cr  0.31012339  0.67817766  0.91633414     1.39100
O880        O  0.30334338  0.68747246  0.89035437    -1.23800
O881        O  0.11513238  0.59159495  0.83313488    -0.86000
O882        O  0.13682854  0.58124202  0.79727110    -0.83100
C883        C  0.14996808  0.58139769  0.78213189     0.97400
O884        O  0.16878702  0.58780942  0.78494974    -0.83100
O885        O  0.15418595  0.62762667  0.78012489    -0.85800
C886        C  0.14488279  0.64496833  0.78338377     1.01900
O887        O  0.14172535  0.65141492  0.80284463    -0.78500
O888        O  0.11188591  0.62529540  0.82429048    -0.78700
C889        C  0.10344048  0.60706862  0.82759642     1.01900
O890        O  0.15443253  0.58866492  0.85632238    -0.86000
O891        O  0.17511366  0.57379068  0.82185447    -0.83100
C892        C  0.19269230  0.58349625  0.82475722     0.97400
O893        O  0.19498377  0.60272427  0.81950441    -0.83100
O894        O  0.18401566  0.64383787  0.80932741    -0.85700
C895        C  0.18644183  0.64892470  0.82858321     1.01900
O896        O  0.17118365  0.64543765  0.84144811    -0.78600
O897        O  0.14046302  0.62023905  0.86236300    -0.78700
C898        C  0.14830066  0.60252999  0.86939588     1.01900
Cr899      Cr  0.14591224  0.58568376  0.82658461     1.93700
Cr900      Cr  0.17410986  0.61524238  0.80010111     1.93200
Cr901      Cr  0.14207684  0.63437809  0.83196399     1.39100
O902        O  0.15375968  0.61191829  0.81977781    -1.23800
O903        O  0.32006845  0.93621347  0.62535202    -0.86000
O904        O  0.28374499  0.94712050  0.64496721    -0.83100
C905        C  0.26688596  0.94494149  0.65554807     0.97400
O906        O  0.26750813  0.93838848  0.67468793    -0.83100
O907        O  0.26360010  0.89862564  0.66078537    -0.85800
C908        C  0.26747200  0.88249087  0.64967034     1.01900
O909        O  0.28680235  0.87580844  0.64761196    -0.78500
O910        O  0.30806924  0.90377775  0.62035693    -0.78700
C911        C  0.31305410  0.92193583  0.61275336     1.01900
O912        O  0.34061319  0.93666418  0.66686506    -0.86000
O913        O  0.30465867  0.95260942  0.68529898    -0.83100
C914        C  0.30647200  0.94244456  0.70276552     0.97400
O915        O  0.30039546  0.92343447  0.70418475    -0.83100
O916        O  0.29229775  0.88274008  0.69235593    -0.85700
C917        C  0.31173174  0.87807210  0.69445382     1.01900
O918        O  0.32408496  0.88128853  0.67868972    -0.78600
O919        O  0.34582324  0.90676779  0.64933988    -0.78700
C920        C  0.35333379  0.92315894  0.65928440     1.01900
Cr921      Cr  0.31168144  0.94134881  0.65618737     1.93700
Cr922      Cr  0.28254694  0.91112207  0.68172924     1.93200
Cr923      Cr  0.31541220  0.89303068  0.64987878     1.39100
O924        O  0.30328785  0.91501532  0.66240901    -1.23800
O925        O  0.10710370  0.85196702  0.60232979    -0.86000
O926        O  0.13527147  0.83103694  0.62993751    -0.83100
C927        C  0.13677570  0.81161314  0.62329261     0.97400
O928        O  0.14743428  0.80746257  0.60673815    -0.83100
O929        O  0.16640164  0.81144946  0.56771418    -0.85800
C930        C  0.14909104  0.80934475  0.55787890     1.01900
O931        O  0.13549126  0.82408762  0.55767417    -0.78500
O932        O  0.11195501  0.85902109  0.56819450    -0.78700
C933        C  0.09953820  0.85443534  0.58355198     1.01900
O934        O  0.13581605  0.88941924  0.59862504    -0.86000
O935        O  0.16614804  0.86875606  0.62352502    -0.83100
C936        C  0.18107765  0.85573719  0.62746915     0.97400
O937        O  0.17717614  0.83636534  0.62440895    -0.83100
O938        O  0.19185356  0.84533956  0.58334190    -0.85700
C939        C  0.19073420  0.85086586  0.56392122     1.01900
O940        O  0.17325475  0.85000248  0.55367615    -0.78600
O941        O  0.15048979  0.88460071  0.56709044    -0.78700
C942        C  0.14378377  0.89715956  0.58135907     1.01900
Cr943      Cr  0.13701938  0.85942540  0.61240631     1.93700
Cr944      Cr  0.16925696  0.82679870  0.59525535     1.93200
Cr945      Cr  0.14325785  0.85387451  0.56373024     1.39100
O946        O  0.14953156  0.84687663  0.59040946    -1.23800
O947        O  0.05856751  0.65678485  0.65329362    -0.86000
O948        O  0.04686549  0.67702545  0.68929409    -0.83100
C949        C  0.04753606  0.68877961  0.70549987     0.97400
O950        O  0.05436636  0.70772573  0.70427648    -0.83100
O951        O  0.09403637  0.69420418  0.70800271    -0.85800
C952        C  0.11121184  0.68482823  0.70494514     1.01900
O953        O  0.11815124  0.68268757  0.68557763    -0.78500
O954        O  0.09133541  0.65319965  0.66501817    -0.78700
C955        C  0.07339625  0.64485890  0.66023704     1.01900
O956        O  0.05659517  0.69742587  0.63128434    -0.86000
O957        O  0.04000171  0.71669845  0.66667340    -0.83100
C958        C  0.04943687  0.73472454  0.66617915     0.97400
O959        O  0.06867814  0.73640189  0.67122512    -0.83100
O960        O  0.10967185  0.72576198  0.67852379    -0.85700
C961        C  0.11315710  0.72826673  0.65878769     1.01900
O962        O  0.11063821  0.71223491  0.64666575    -0.78600
O963        O  0.08687719  0.68068257  0.62648793    -0.78700
C964        C  0.07012958  0.68965784  0.61870116     1.01900
Cr965      Cr  0.05225373  0.68757937  0.66069867     1.93700
Cr966      Cr  0.08153340  0.71466466  0.68894307     1.93200
Cr967      Cr  0.10069590  0.68304611  0.65673308     1.39100
O968        O  0.07823660  0.69493617  0.66863923    -1.23800
O969        O  0.46183841  0.92947248  0.31247503    -0.86000
O970        O  0.45153802  0.90995203  0.27414414    -0.83100
C971        C  0.45351341  0.90376309  0.25509665     0.97400
O972        O  0.46834942  0.91075742  0.24334395    -0.83100
O973        O  0.45927727  0.95311579  0.23869339    -0.85800
C974        C  0.45616700  0.97191506  0.24516340     1.01900
O975        O  0.46598209  0.97954585  0.26138145    -0.78500
O976        O  0.45424352  0.96013182  0.29887418    -0.78700
C977        C  0.44820146  0.94364074  0.30909246     1.01900
O978        O  0.50534379  0.92067133  0.30387988    -0.86000
O979        O  0.49518580  0.89777454  0.27010471    -0.83100
C980        C  0.51063600  0.90276014  0.25817294     0.97400
O981        O  0.51206981  0.92119746  0.25004995    -0.83100
O982        O  0.50280275  0.96310525  0.23904507    -0.85700
C983        C  0.51345706  0.97560769  0.25061195     1.01900
O984        O  0.51090548  0.97536799  0.27078769    -0.78600
O985        O  0.50301998  0.95533713  0.30955124    -0.78700
C986        C  0.51315324  0.93756959  0.31131920     1.01900
Cr987      Cr  0.47856426  0.91659285  0.28899602     1.93700
Cr988      Cr  0.48552894  0.93722049  0.24507299     1.93200
Cr989      Cr  0.48337964  0.96569167  0.28499270     1.39100
O990        O  0.48262178  0.94015289  0.27306108    -1.23800
O991        O  0.89222776  0.53121880  0.31425338    -0.86000
O992        O  0.86935510  0.53713522  0.27767834    -0.83100
C993        C  0.86211838  0.53419819  0.25920224     0.97400
O994        O  0.86963732  0.51988175  0.24729249    -0.83100
O995        O  0.91113846  0.53497542  0.24068694    -0.85800
C996        C  0.93031460  0.53911704  0.24579250     1.01900
O997        O  0.93964596  0.52938633  0.26108235    -0.78500
O998        O  0.92244277  0.54001599  0.29975521    -0.78700
C999        C  0.90588688  0.54538135  0.31013365     1.01900
O1000       O  0.88751854  0.48621622  0.30845343    -0.86000
O1001       O  0.86218934  0.49159835  0.27546383    -0.83100
C1002       C  0.86871103  0.47653569  0.26376058     0.97400
O1003       O  0.88618544  0.47825720  0.25370018    -0.83100
O1004       O  0.92565940  0.49291616  0.23947631    -0.85700
C1005       C  0.93877964  0.48243035  0.25037705     1.01900
O1006       O  0.93889118  0.48434114  0.27065195    -0.78600
O1007       O  0.92224270  0.49134449  0.31102519    -0.78700
C1008       C  0.90546711  0.48010715  0.31472757     1.01900
Cr1009     Cr  0.87984198  0.51164385  0.29265478     1.93700
Cr1010     Cr  0.89835980  0.50671399  0.24757339     1.93200
Cr1011     Cr  0.92888224  0.51126545  0.28557989     1.39100
O1012       O  0.90263728  0.50989700  0.27538887    -1.23800
O1013       O  0.63628336  0.93236059  0.35593554    -0.86000
O1014       O  0.67304624  0.94592080  0.33716947    -0.83100
C1015       C  0.68889063  0.94677923  0.32488370     0.97400
O1016       O  0.68716990  0.94171373  0.30537781    -0.83100
O1017       O  0.69321973  0.90120049  0.31435401    -0.85800
C1018       C  0.69120440  0.88390314  0.32403437     1.01900
O1019       O  0.67240977  0.87628831  0.32779370    -0.78500
O1020       O  0.65162117  0.90141778  0.35911674    -0.78700
C1021       C  0.64524537  0.91870828  0.36771468     1.01900
O1022       O  0.61541222  0.93586669  0.31599500    -0.86000
O1023       O  0.65034209  0.95568572  0.29853077    -0.83100
C1024       C  0.64817106  0.94770582  0.28007785     0.97400
O1025       O  0.65307679  0.92867542  0.27663484    -0.83100
O1026       O  0.66323125  0.88720742  0.28343595    -0.85700
C1027       C  0.64447911  0.87984694  0.28282006     1.01900
O1028       O  0.63303450  0.88081128  0.29963996    -0.78600
O1029       O  0.61244701  0.90446450  0.33185586    -0.78700
C1030       C  0.60378160  0.92135551  0.32387270     1.01900
Cr1031     Cr  0.64449793  0.94071333  0.32618211     1.93700
Cr1032     Cr  0.67253933  0.91473294  0.29637518     1.93200
Cr1033     Cr  0.64302517  0.89196802  0.32883078     1.39100
O1034       O  0.65314850  0.91549949  0.31711696    -1.23800
O1035       O  0.58803446  0.88542793  0.15262593    -0.86000
O1036       O  0.61255173  0.86295985  0.18226480    -0.83100
C1037       C  0.61526170  0.85007170  0.19772109     0.97400
O1038       O  0.60994073  0.83073411  0.19497308    -0.83100
O1039       O  0.57010926  0.83861611  0.20663040    -0.85800
C1040       C  0.55162145  0.84577967  0.20556569     1.01900
O1041       O  0.54087029  0.84500930  0.18838247    -0.78500
O1042       O  0.55812678  0.88096728  0.17044964    -0.78700
C1043       C  0.57191638  0.89339538  0.16261338     1.01900
O1044       O  0.58988175  0.84803665  0.12321883    -0.86000
O1045       O  0.61795522  0.82554231  0.15194369    -0.83100
C1046       C  0.61053388  0.80635760  0.15399815     0.97400
O1047       O  0.59221621  0.80398591  0.16128979    -0.83100
O1048       O  0.55324572  0.80765450  0.17696748    -0.85700
C1049       C  0.54524627  0.80765349  0.15841124     1.01900
O1050       O  0.54538932  0.82430845  0.14720338    -0.78600
O1051       O  0.55811560  0.86139963  0.12899916    -0.78700
C1052       C  0.57177444  0.85406548  0.11607977     1.01900
Cr1053     Cr  0.60093501  0.85471069  0.15315391     1.93700
Cr1054     Cr  0.58124480  0.82172450  0.18367234     1.93200
Cr1055     Cr  0.55236576  0.85223309  0.15924187     1.39100
O1056       O  0.57828545  0.84317541  0.16532620    -1.23800
O1057       O  0.84713552  0.85151075  0.38164236    -0.86000
O1058       O  0.82561465  0.81960891  0.35822848    -0.83100
C1059       C  0.81365276  0.80305673  0.35789633     0.97400
O1060       O  0.79508867  0.80409470  0.36566455    -0.83100
O1061       O  0.80089902  0.80219428  0.40827505    -0.85800
C1062       C  0.80519825  0.80758217  0.42705137     1.01900
O1063       O  0.80251027  0.82668430  0.43275198    -0.78500
O1064       O  0.84098469  0.83895979  0.41415509    -0.78700
C1065       C  0.85410983  0.84420952  0.39961855     1.01900
O1066       O  0.81024833  0.88112440  0.37400844    -0.86000
O1067       O  0.78956798  0.84984349  0.34923905    -0.83100
C1068       C  0.77011330  0.84656239  0.35485147     0.97400
O1069       O  0.76578675  0.83791359  0.37230078    -0.83100
O1070       O  0.76790865  0.83476969  0.41409356    -0.85700
C1071       C  0.76744954  0.85487993  0.41630542     1.01900
O1072       O  0.78458032  0.86543183  0.41722640    -0.78600
O1073       O  0.82412137  0.87986692  0.40571012    -0.78700
C1074       C  0.81611513  0.89090692  0.39091262     1.01900
Cr1075     Cr  0.81738142  0.84991272  0.36715155     1.93700
Cr1076     Cr  0.78413591  0.82112839  0.39019324     1.93200
Cr1077     Cr  0.81242502  0.85178740  0.41575398     1.39100
O1078       O  0.80487448  0.84076259  0.39066723    -1.23800
O1079       O  0.86714627  0.67132259  0.36078773    -0.86000
O1080       O  0.84270291  0.70186340  0.33922455    -0.83100
C1081       C  0.84004365  0.71771266  0.32677635     0.97400
O1082       O  0.84545117  0.71563127  0.30742735    -0.83100
O1083       O  0.88526528  0.72756826  0.31680677    -0.85800
C1084       C  0.90304275  0.72635246  0.32570788     1.01900
O1085       O  0.91444418  0.70963400  0.32422578    -0.78500
O1086       O  0.89857157  0.68711644  0.35813671    -0.78700
C1087       C  0.88378649  0.67961048  0.36963954     1.01900
O1088       O  0.86561122  0.64357005  0.32223183    -0.86000
O1089       O  0.83826177  0.67222637  0.30054208    -0.83100
C1090       C  0.84556835  0.67499002  0.28140950     0.97400
O1091       O  0.86294232  0.68450185  0.27899784    -0.83100
O1092       O  0.90233943  0.69972410  0.28449105    -0.85700
C1093       C  0.90842427  0.68064888  0.28270978     1.01900
O1094       O  0.91072957  0.66953577  0.29923090    -0.78600
O1095       O  0.89824868  0.64820497  0.33420109    -0.78700
C1096       C  0.88384246  0.63588146  0.32696906     1.01900
Cr1097     Cr  0.85472793  0.67310358  0.32996938     1.93700
Cr1098     Cr  0.87429728  0.70544627  0.29845072     1.93200
Cr1099     Cr  0.90373027  0.67933338  0.32811567     1.39100
O1100       O  0.87749913  0.68589899  0.31919210    -1.23800
O1101       O  0.84136959  0.58676070  0.16727104    -0.86000
O1102       O  0.80691411  0.56903514  0.18727355    -0.83100
C1103       C  0.80820412  0.57891110  0.20496988     0.97400
O1104       O  0.80130022  0.59752583  0.20698175    -0.83100
O1105       O  0.79081385  0.63815021  0.19726109    -0.85800
C1106       C  0.80992580  0.64382305  0.19972509     1.01900
O1107       O  0.82271604  0.64137651  0.18415450    -0.78500
O1108       O  0.84468767  0.61859779  0.15264353    -0.78700
C1109       C  0.85315271  0.60161629  0.16034763     1.01900
O1110       O  0.81837491  0.58885539  0.12731040    -0.86000
O1111       O  0.78320879  0.57485612  0.14773179    -0.83100
C1112       C  0.76701060  0.57678273  0.15932657     0.97400
O1113       O  0.76916676  0.58175671  0.17868511    -0.83100
O1114       O  0.76271026  0.62247488  0.16552056    -0.85700
C1115       C  0.76596902  0.63970503  0.15570620     1.01900
O1116       O  0.78516205  0.64694489  0.15388211    -0.78600
O1117       O  0.80711133  0.62189386  0.12434903    -0.78700
C1118       C  0.81179598  0.60414416  0.11571750     1.01900
Cr1119     Cr  0.81177292  0.58165540  0.15808922     1.93700
Cr1120     Cr  0.78246774  0.60975713  0.18568766     1.93200
Cr1121     Cr  0.81417897  0.63085324  0.15461772     1.39100
O1122       O  0.80293490  0.60753776  0.16586630    -1.23800
O1123       O  0.60944436  0.69410220  0.07200990    -0.86000
O1124       O  0.64362008  0.71456937  0.05464212    -0.83100
C1125       C  0.64312968  0.73124084  0.06614905     0.97400
O1126       O  0.65316542  0.73240705  0.08337907    -0.83100
O1127       O  0.66471481  0.71999779  0.12267876    -0.85800
C1128       C  0.64585650  0.72330002  0.12874015     1.01900
O1129       O  0.63220758  0.70842390  0.12637591    -0.78500
O1130       O  0.60707240  0.67910471  0.10376762    -0.78700
C1131       C  0.59806485  0.68757071  0.08729530     1.01900
O1132       O  0.63186706  0.65376818  0.07133837    -0.86000
O1133       O  0.66629901  0.67425923  0.05667205    -0.83100
C1134       C  0.68348978  0.68451655  0.05762989     0.97400
O1135       O  0.68340897  0.70343093  0.06444820    -0.83100
O1136       O  0.69062846  0.68773900  0.10398755    -0.85700
C1137       C  0.68745083  0.67789234  0.12121697     1.01900
O1138       O  0.66845421  0.67657797  0.12906022    -0.78600
O1139       O  0.64402179  0.64900779  0.10397130    -0.78700
C1140       C  0.63888607  0.64135637  0.08582007     1.01900
Cr1141     Cr  0.63867245  0.68478874  0.06546070     1.93700
Cr1142     Cr  0.67132210  0.70950951  0.09331962     1.93200
Cr1143     Cr  0.63864916  0.67911072  0.11446024     1.39100
O1144       O  0.64939566  0.69089973  0.09115118    -1.23800
O1145       O  0.56433788  0.03533678  0.16934699    -0.86000
O1146       O  0.58594668  0.05443673  0.20208636    -0.83100
C1147       C  0.59150077  0.05829430  0.22099368     0.97400
O1148       O  0.58551654  0.04648179  0.23648561    -0.83100
O1149       O  0.54227154  0.04993307  0.24251549    -0.85800
C1150       C  0.52302614  0.04930507  0.23668399     1.01900
O1151       O  0.51669137  0.03628397  0.22233278    -0.78500
O1152       O  0.53467213  0.04462770  0.18363533    -0.78700
C1153       C  0.55072411  0.04970723  0.17248971     1.01900
O1154       O  0.57765859  0.99444857  0.18603960    -0.86000
O1155       O  0.60204775  0.01453612  0.21547620    -0.83100
C1156       C  0.59848978  0.00159280  0.23046274     0.97400
O1157       O  0.58068558  0.00073950  0.23971790    -0.83100
O1158       O  0.53801830  0.00522485  0.24964475    -0.85700
C1159       C  0.52742213  0.99137049  0.23934792     1.01900
O1160       O  0.52736265  0.99161665  0.21903184    -0.78600
O1161       O  0.54346457  0.99621111  0.17845190    -0.78700
C1162       C  0.56111209  0.98579553  0.17855465     1.01900
Cr1163     Cr  0.58061252  0.02455130  0.19438043     1.93700
Cr1164     Cr  0.56151023  0.02534527  0.23991303     1.93200
Cr1165     Cr  0.53234584  0.01756165  0.20105440     1.39100
O1166       O  0.55795001  0.02252189  0.21193133    -1.23800
O1167       O  0.56805407  0.19473286  0.97341318    -0.86000
O1168       O  0.59007631  0.22800586  0.95610540    -0.83100
C1169       C  0.59544813  0.24700793  0.95278989     0.97400
O1170       O  0.58917809  0.26210499  0.96471831    -0.83100
O1171       O  0.54656280  0.26752865  0.95726459    -0.85800
C1172       C  0.52729902  0.26173362  0.95652729     1.01900
O1173       O  0.52013494  0.24735207  0.96921649    -0.78500
O1174       O  0.53877565  0.20861612  0.96212190    -0.78700
C1175       C  0.55501766  0.19733066  0.95828331     1.01900
O1176       O  0.57831855  0.21115140  0.01514704    -0.86000
O1177       O  0.60357458  0.24134595  0.99737114    -0.83100
C1178       C  0.59926676  0.25642277  0.00996207     0.97400
O1179       O  0.58107980  0.26496997  0.00992057    -0.83100
O1180       O  0.53865636  0.27412052  0.00112136    -0.85700
C1181       C  0.52790797  0.26388711  0.01479260     1.01900
O1182       O  0.52800727  0.24361757  0.01496719    -0.78600
O1183       O  0.54443249  0.20287411  0.01096422    -0.78700
C1184       C  0.56164474  0.20244692  0.02221240     1.01900
Cr1185     Cr  0.58313455  0.21995714  0.98554204     1.93700
Cr1186     Cr  0.56375712  0.26498779  0.98355141     1.93200
Cr1187     Cr  0.53455221  0.22586589  0.98910290     1.39100
O1188       O  0.56026446  0.23703267  0.98602714    -1.23800
O1189       O  0.46073321  0.32706824  0.08538330    -0.86000
O1190       O  0.47807261  0.29528270  0.10851274    -0.83100
C1191       C  0.46488519  0.28065164  0.10425434     0.97400
O1192       O  0.46324517  0.27315906  0.08564652    -0.83100
O1193       O  0.46999101  0.26498596  0.04254291    -0.85800
C1194       C  0.45688307  0.27594913  0.03186313     1.01900
O1195       O  0.45755909  0.29620595  0.03263189    -0.78500
O1196       O  0.46340608  0.33579749  0.05131552    -0.78700
C1197       C  0.45290295  0.33576892  0.06905486     1.01900
O1198       O  0.50228885  0.34242510  0.07388376    -0.86000
O1199       O  0.51912073  0.30742435  0.09366842    -0.83100
C1200       C  0.52152080  0.28825594  0.09883542     0.97400
O1201       O  0.50877216  0.27379695  0.09241588    -0.83100
O1202       O  0.51413369  0.26951154  0.04929873    -0.85700
C1203       C  0.51452189  0.27573701  0.03013513     1.01900
O1204       O  0.50277160  0.29116973  0.02379036    -0.78600
O1205       O  0.51216897  0.32924499  0.04370566    -0.78700
C1206       C  0.51678329  0.34011835  0.06015093     1.01900
Cr1207     Cr  0.48991809  0.31696194  0.08841177     1.93700
Cr1208     Cr  0.48881921  0.27258956  0.06743147     1.93200
Cr1209     Cr  0.48428232  0.31285758  0.03960433     1.39100
O1210       O  0.48762478  0.30071276  0.06489474    -1.23800
O1211       O  0.50496448  0.11571332  0.29814656    -0.86000
O1212       O  0.48496676  0.13789973  0.26717369    -0.83100
C1213       C  0.49779941  0.13345901  0.25235141     0.97400
O1214       O  0.49891052  0.11497279  0.24465226    -0.83100
O1215       O  0.49290450  0.07196455  0.23731231    -0.85800
C1216       C  0.50746177  0.06285248  0.24785146     1.01900
O1217       O  0.50805909  0.06430921  0.26802594    -0.78500
O1218       O  0.50366216  0.08198748  0.30759037    -0.78700
C1219       C  0.51403466  0.09976757  0.30631620     1.01900
O1220       O  0.46389611  0.10298425  0.31560456    -0.86000
O1221       O  0.44487321  0.12240045  0.28155456    -0.83100
C1222       C  0.44097734  0.12660259  0.26229335     0.97400
O1223       O  0.45331957  0.12058758  0.24737598    -0.83100
O1224       O  0.44886274  0.07759568  0.24420133    -0.85700
C1225       C  0.45006294  0.05838148  0.24989454     1.01900
O1226       O  0.46314171  0.05258724  0.26457130    -0.78600
O1227       O  0.45507987  0.07222336  0.30301390    -0.78700
C1228       C  0.44980083  0.08874565  0.31331710     1.01900
Cr1229     Cr  0.47480935  0.11788803  0.28967819     1.93700
Cr1230     Cr  0.47382631  0.09633144  0.24551226     1.93200
Cr1231     Cr  0.48202440  0.06942649  0.28560768     1.39100
O1232       O  0.47677083  0.09433737  0.27355396    -1.23800
O1233       O  0.61509652  0.34907476  0.09962006    -0.86000
O1234       O  0.64353081  0.32653103  0.12588391    -0.83100
C1235       C  0.64548341  0.30760837  0.11807698     0.97400
O1236       O  0.65531454  0.30492134  0.10082684    -0.83100
O1237       O  0.67172502  0.31222729  0.06157727    -0.85800
C1238       C  0.65347305  0.31167109  0.05307433     1.01900
O1239       O  0.64158897  0.32771567  0.05332993    -0.78500
O1240       O  0.62014659  0.36218768  0.06739458    -0.78700
C1241       C  0.60755396  0.35495252  0.08161531     1.01900
O1242       O  0.64296193  0.38715832  0.09949512    -0.86000
O1243       O  0.67347498  0.36471285  0.12274081    -0.83100
C1244       C  0.68900962  0.35205083  0.12550243     0.97400
O1245       O  0.68633158  0.33278537  0.12013659    -0.83100
O1246       O  0.69894412  0.34375066  0.08083235    -0.85700
C1247       C  0.69782975  0.35295571  0.06315200     1.01900
O1248       O  0.68128290  0.35168981  0.05147887    -0.78600
O1249       O  0.66004639  0.38526016  0.06885310    -0.78700
C1250       C  0.65180937  0.39636431  0.08341460     1.01900
Cr1251     Cr  0.64465897  0.35611288  0.11071672     1.93700
Cr1252     Cr  0.67664857  0.32491231  0.09057398     1.93200
Cr1253     Cr  0.65128945  0.35590469  0.06202059     1.39100
O1254       O  0.65727802  0.34574878  0.08780460    -1.23800
O1255       O  0.64413378  0.12590571  0.35646947    -0.86000
O1256       O  0.67516451  0.15039333  0.33512072    -0.83100
C1257       C  0.69098317  0.15296596  0.32259368     0.97400
O1258       O  0.68858186  0.14811651  0.30311151    -0.83100
O1259       O  0.69793121  0.10729052  0.31031838    -0.85800
C1260       C  0.69613855  0.08913694  0.31832504     1.01900
O1261       O  0.67886409  0.07855900  0.31649366    -0.78500
O1262       O  0.65881927  0.09448751  0.35165708    -0.78700
C1263       C  0.65210366  0.10863821  0.36423095     1.01900
O1264       O  0.61522221  0.13037933  0.31899614    -0.86000
O1265       O  0.64437323  0.15745462  0.29772537    -0.83100
C1266       C  0.64642017  0.15124786  0.27815957     0.97400
O1267       O  0.65577678  0.13405924  0.27426623    -0.83100
O1268       O  0.66827774  0.09353361  0.27750370    -0.85700
C1269       C  0.64888619  0.08815760  0.27628029     1.01900
O1270       O  0.63837158  0.08538652  0.29312373    -0.78600
O1271       O  0.61875918  0.09712025  0.32931101    -0.78700
C1272       C  0.60680575  0.11226458  0.32322269     1.01900
Cr1273     Cr  0.64557145  0.13969944  0.32620919     1.93700
Cr1274     Cr  0.67620840  0.12040007  0.29287553     1.93200
Cr1275     Cr  0.64943875  0.09070907  0.32188687     1.39100
O1276       O  0.65694450  0.11704887  0.31386607    -1.23800
O1277       O  0.59092697  0.18628152  0.12130479    -0.86000
O1278       O  0.61578815  0.20914359  0.15056628    -0.83100
C1279       C  0.60906236  0.22841484  0.15296295     0.97400
O1280       O  0.59199106  0.23183192  0.16273005    -0.83100
O1281       O  0.55096447  0.22646316  0.17193665    -0.85800
C1282       C  0.54739260  0.22778255  0.15210340     1.01900
O1283       O  0.54609948  0.21109191  0.14102963    -0.78500
O1284       O  0.55874037  0.17325728  0.12432399    -0.78700
C1285       C  0.57339216  0.18074914  0.11266677     1.01900
O1286       O  0.58668094  0.14925854  0.15171311    -0.86000
O1287       O  0.61026231  0.17263263  0.18166364    -0.83100
C1288       C  0.61224316  0.18523220  0.19745884     0.97400
O1289       O  0.60484938  0.20386150  0.19610739    -0.83100
O1290       O  0.56352618  0.19426011  0.20266016    -0.85700
C1291       C  0.54483275  0.18801074  0.19935693     1.01900
O1292       O  0.53621523  0.19033573  0.18119497    -0.78600
O1293       O  0.55468039  0.15424142  0.16545165    -0.78700
C1294       C  0.56945426  0.14168247  0.16015665     1.01900
Cr1295     Cr  0.59955685  0.18006265  0.15200905     1.93700
Cr1296     Cr  0.57767564  0.21248479  0.18198321     1.93200
Cr1297     Cr  0.55065353  0.18295601  0.15370161     1.39100
O1298       O  0.57625791  0.19164559  0.16249896    -1.23800
O1299       O  0.87414936  0.38287915  0.32331505    -0.86000
O1300       O  0.84723269  0.35546246  0.29932736    -0.83100
C1301       C  0.85461707  0.35322601  0.28010823     0.97400
O1302       O  0.87177278  0.34335822  0.27746606    -0.83100
O1303       O  0.91056003  0.32559676  0.28377227    -0.85800
C1304       C  0.91947081  0.34364413  0.28318534     1.01900
O1305       O  0.91958894  0.35544895  0.29936354    -0.78500
O1306       O  0.90691749  0.37685583  0.33446416    -0.78700
C1307       C  0.89256556  0.38975208  0.32854188     1.01900
O1308       O  0.87446266  0.35375016  0.36061476    -0.86000
O1309       O  0.85036913  0.32464626  0.33710087    -0.83100
C1310       C  0.84742747  0.30916748  0.32443440     0.97400
O1311       O  0.85222822  0.31204877  0.30502830    -0.83100
O1312       O  0.89122240  0.29844075  0.31523638    -0.85700
C1313       C  0.90873454  0.29925831  0.32471884     1.01900
O1314       O  0.92080573  0.31556359  0.32348606    -0.78600
O1315       O  0.90541495  0.33762272  0.35779954    -0.78700
C1316       C  0.89094765  0.34522271  0.36949068     1.01900
Cr1317     Cr  0.86275988  0.35327608  0.32923346     1.93700
Cr1318     Cr  0.88175951  0.32135793  0.29695646     1.93200
Cr1319     Cr  0.91133819  0.34585162  0.32792053     1.39100
O1320       O  0.88525552  0.34041171  0.31823717    -1.23800
O1321       O  0.82129451  0.14626531  0.38166293    -0.86000
O1322       O  0.79133109  0.16873478  0.35681057    -0.83100
C1323       C  0.77555367  0.18140965  0.35498862     0.97400
O1324       O  0.77790996  0.20047815  0.36098853    -0.83100
O1325       O  0.76955677  0.19240063  0.40258701    -0.85800
C1326       C  0.77198699  0.18716576  0.42176225     1.01900
O1327       O  0.79010783  0.18843560  0.43061864    -0.78500
O1328       O  0.80569180  0.15175325  0.41275368    -0.78700
C1329       C  0.81219675  0.13892072  0.39869354     1.01900
O1330       O  0.85167974  0.18345944  0.37759234    -0.86000
O1331       O  0.82330294  0.20550494  0.35076540    -0.83100
C1332       C  0.82157271  0.22477167  0.35781039     0.97400
O1333       O  0.81119190  0.22829326  0.37454077    -0.83100
O1334       O  0.80030748  0.22456395  0.41529897    -0.85700
C1335       C  0.81962113  0.22501669  0.42110563     1.01900
O1336       O  0.83052408  0.20823332  0.42142592    -0.78600
O1337       O  0.84723737  0.17025595  0.40954435    -0.78700
C1338       C  0.85960374  0.17808641  0.39559980     1.01900
Cr1339     Cr  0.82113084  0.17671167  0.36791580     1.93700
Cr1340     Cr  0.79105546  0.20974865  0.38851143     1.93200
Cr1341     Cr  0.81776489  0.18034436  0.41674735     1.39100
O1342       O  0.81001602  0.18875229  0.39080378    -1.23800
O1343       O  0.85022431  0.40553629  0.16036841    -0.86000
O1344       O  0.82025340  0.38136548  0.18171008    -0.83100
C1345       C  0.81436938  0.38660888  0.20074668     0.97400
O1346       O  0.80176777  0.40185994  0.20343179    -0.83100
O1347       O  0.80080918  0.44392190  0.20083708    -0.85800
C1348       C  0.82087452  0.44536576  0.20288199     1.01900
O1349       O  0.83261250  0.44710457  0.18658781    -0.78500
O1350       O  0.84886392  0.43721066  0.14686046    -0.78700
C1351       C  0.85982478  0.42255583  0.15489548     1.01900
O1352       O  0.82033703  0.41224459  0.12247729    -0.86000
O1353       O  0.78998518  0.38629187  0.14375618    -0.83100
C1354       C  0.77205684  0.38733515  0.15334100     0.97400
O1355       O  0.77036832  0.39758387  0.17055696    -0.83100
O1356       O  0.77055781  0.44010619  0.16519336    -0.85700
C1357       C  0.77674745  0.45886610  0.16184668     1.01900
O1358       O  0.79560606  0.46399989  0.16645326    -0.78600
O1359       O  0.80913316  0.44534794  0.12849240    -0.78700
C1360       C  0.81376169  0.43057548  0.11543368     1.01900
Cr1361     Cr  0.81933958  0.39783101  0.15276797     1.93700
Cr1362     Cr  0.78747300  0.42089332  0.18336851     1.93200
Cr1363     Cr  0.82052460  0.44649537  0.15775838     1.39100
O1364       O  0.80883526  0.42126009  0.16431468    -1.23800
O1365       O  0.17118067  0.60357207  0.01704523    -0.86000
O1366       O  0.20344257  0.62667981  0.00137002    -0.83100
C1367       C  0.21608308  0.62201795  0.01629901     0.97400
O1368       O  0.22496240  0.60401282  0.01688905    -0.83100
O1369       O  0.23445157  0.56213008  0.00915823    -0.85800
C1370       C  0.22351433  0.55070511  0.02161961     1.01900
O1371       O  0.20336750  0.54988371  0.01971044    -0.78500
O1372       O  0.16427940  0.56907358  0.01477895    -0.78700
C1373       C  0.16343297  0.58686128  0.02515483     1.01900
O1374       O  0.15753900  0.59311726  0.97494582    -0.86000
O1375       O  0.19396413  0.61297635  0.95910927    -0.83100
C1376       C  0.21316966  0.61896131  0.95826337     0.97400
O1377       O  0.22678773  0.61225988  0.97163566    -0.83100
O1378       O  0.23132476  0.56951304  0.96472385    -0.85700
C1379       C  0.22427634  0.55078026  0.96224533     1.01900
O1380       O  0.20868150  0.54368802  0.97348179    -0.78600
O1381       O  0.17093964  0.56318228  0.96531152    -0.78700
C1382       C  0.16024689  0.57959633  0.96048775     1.01900
Cr1383     Cr  0.18267539  0.60708281  0.98812163     1.93700
Cr1384     Cr  0.22711616  0.58680281  0.99065055     1.93200
Cr1385     Cr  0.18704796  0.55824265  0.99311288     1.39100
O1386       O  0.19900109  0.58372869  0.99072436    -1.23800
O1387       O  0.95834460  0.59960662  0.17053105    -0.86000
O1388       O  0.94042015  0.62104581  0.20402597    -0.83100
C1389       C  0.93664973  0.62575295  0.22317333     0.97400
O1390       O  0.94741866  0.61780687  0.23832888    -0.83100
O1391       O  0.94046775  0.57447899  0.23848329    -0.85800
C1392       C  0.94270553  0.55507481  0.23388766     1.01900
O1393       O  0.95771516  0.54909948  0.22154611    -0.78500
O1394       O  0.94971541  0.56836937  0.18286061    -0.78700
C1395       C  0.94457493  0.58490392  0.17240317     1.01900
O1396       O  0.00007522  0.61095682  0.18766238    -0.86000
O1397       O  0.98157061  0.63355158  0.21880336    -0.83100
C1398       C  0.99252468  0.62873352  0.23506584     0.97400
O1399       O  0.99166948  0.61050726  0.24360897    -0.83100
O1400       O  0.98450358  0.56737795  0.24898901    -0.85700
C1401       C  0.00053325  0.55991552  0.23933871     1.01900
O1402       O  0.00207363  0.56174638  0.21917348    -0.78600
O1403       O  0.99739593  0.57748635  0.17812597    -0.78700
C1404       C  0.00824049  0.59484783  0.17900230     1.01900
Cr1405     Cr  0.97012714  0.61440912  0.19621431     1.93700
Cr1406     Cr  0.96630465  0.59244274  0.24023093     1.93200
Cr1407     Cr  0.97633970  0.56584180  0.20069923     1.39100
O1408       O  0.97093820  0.59090038  0.21238133    -1.23800
O1409       O  0.07677803  0.49628527  0.29912167    -0.86000
O1410       O  0.09864294  0.51768388  0.26840126    -0.83100
C1411       C  0.09483741  0.50498565  0.25324412     0.97400
O1412       O  0.07640579  0.50296970  0.24555180    -0.83100
O1413       O  0.03319569  0.50593667  0.23871139    -0.85800
C1414       C  0.02464938  0.49091839  0.24922884     1.01900
O1415       O  0.02559227  0.49071436  0.26952150    -0.78500
O1416       O  0.04332764  0.49680130  0.30942265    -0.78700
C1417       C  0.06126875  0.48698460  0.30799616     1.01900
O1418       O  0.06268006  0.53617198  0.31699129    -0.86000
O1419       O  0.08144842  0.55670910  0.28322560    -0.83100
C1420       C  0.08512000  0.56116281  0.26398522     0.97400
O1421       O  0.07927367  0.54884187  0.24891427    -0.83100
O1422       O  0.03613163  0.55046884  0.24562679    -0.85700
C1423       C  0.01703697  0.54815689  0.25134556     1.01900
O1424       O  0.01198451  0.53482831  0.26602534    -0.78600
O1425       O  0.03204781  0.54469230  0.30410669    -0.78700
C1426       C  0.04851233  0.55016235  0.31456677     1.01900
Cr1427     Cr  0.07805976  0.52649063  0.29096811     1.93700
Cr1428     Cr  0.05629412  0.52674866  0.24683248     1.93200
Cr1429     Cr  0.02987328  0.51727205  0.28704355     1.39100
O1430       O  0.05454713  0.52352598  0.27483702    -1.23800
O1431       O  0.28658546  0.54080203  0.08997785    -0.86000
O1432       O  0.25693895  0.52092529  0.11425997    -0.83100
C1433       C  0.24071408  0.53186909  0.10960035     0.97400
O1434       O  0.23257983  0.53137891  0.09118205    -0.83100
O1435       O  0.22545893  0.52334079  0.04829642    -0.85800
C1436       C  0.23521700  0.53739540  0.03740200     1.01900
O1437       O  0.25535316  0.53915945  0.03868057    -0.78500
O1438       O  0.29567507  0.53733823  0.05618772    -0.78700
C1439       C  0.29467061  0.54867515  0.07333961     1.01900
O1440       O  0.30549983  0.50013194  0.07936497    -0.86000
O1441       O  0.27331268  0.48074553  0.10095303    -0.83100
C1442       C  0.25457850  0.47619055  0.10619582     0.97400
O1443       O  0.23876874  0.48673731  0.09915979    -0.83100
O1444       O  0.23551698  0.47951320  0.05619219    -0.85700
C1445       C  0.24027318  0.48043943  0.03666272     1.01900
O1446       O  0.25347057  0.49442681  0.02979677    -0.78600
O1447       O  0.29243962  0.48828359  0.04975855    -0.78700
C1448       C  0.30369595  0.48492922  0.06623857     1.01900
Cr1449     Cr  0.27951371  0.51065452  0.09427183     1.93700
Cr1450     Cr  0.23514402  0.50565447  0.07361446     1.93200
Cr1451     Cr  0.27411272  0.51445748  0.04538614     1.39100
O1452       O  0.26280200  0.51039268  0.07094871    -1.23800
O1453       O  0.34066109  0.68974020  0.10270934    -0.86000
O1454       O  0.31061562  0.71134767  0.12843572    -0.83100
C1455       C  0.30698505  0.73024935  0.12079663     0.97400
O1456       O  0.29706025  0.73208495  0.10357939    -0.83100
O1457       O  0.28329375  0.72521312  0.06389910    -0.85800
C1458       C  0.30181784  0.72691928  0.05606770     1.01900
O1459       O  0.31473036  0.71167700  0.05699519    -0.78500
O1460       O  0.33669632  0.67690812  0.07034151    -0.78700
C1461       C  0.34878717  0.68423664  0.08488923     1.01900
O1462       O  0.31373165  0.65049192  0.10075874    -0.86000
O1463       O  0.28248450  0.67122706  0.12469682    -0.83100
C1464       C  0.26608894  0.68279989  0.12703617     0.97400
O1465       O  0.26725946  0.70206765  0.12117030    -0.83100
O1466       O  0.25706325  0.69093813  0.08103588    -0.85700
C1467       C  0.25925267  0.68382322  0.06254918     1.01900
O1468       O  0.27631465  0.68676636  0.05209126    -0.78600
O1469       O  0.29737530  0.65311709  0.06970888    -0.78700
C1470       C  0.30539915  0.64157297  0.08410584     1.01900
Cr1471     Cr  0.31099421  0.68145477  0.11294075     1.93700
Cr1472     Cr  0.27765496  0.71105950  0.09223200     1.93200
Cr1473     Cr  0.30571730  0.68282201  0.06410411     1.39100
O1474       O  0.29838276  0.69168218  0.08989947    -1.23800
O1475       O  0.08724541  0.64972074  0.33152362    -0.86000
O1476       O  0.11155810  0.67173258  0.30110592    -0.83100
C1477       C  0.11195365  0.68233657  0.28372227     0.97400
O1478       O  0.10377140  0.70060141  0.28311677    -0.83100
O1479       O  0.06188533  0.69091182  0.27871431    -0.85800
C1480       C  0.04297468  0.68605607  0.28317335     1.01900
O1481       O  0.03587245  0.69008183  0.30158196    -0.78500
O1482       O  0.05512506  0.65430507  0.31762753    -0.78700
C1483       C  0.06989137  0.64190928  0.32331778     1.01900
O1484       O  0.09119989  0.68819127  0.36071601    -0.86000
O1485       O  0.11590256  0.71052914  0.33088061    -0.83100
C1486       C  0.10908100  0.72940089  0.32604793     0.97400
O1487       O  0.09303570  0.73136017  0.31425980    -0.83100
O1488       O  0.05175493  0.72588000  0.30764582    -0.85700
C1489       C  0.04735013  0.72767363  0.32727988     1.01900
O1490       O  0.04801563  0.71184366  0.33970314    -0.78600
O1491       O  0.05978176  0.67381330  0.35769050    -0.78700
C1492       C  0.07386340  0.68209868  0.36935375     1.01900
Cr1493     Cr  0.10021691  0.68075451  0.33023003     1.93700
Cr1494     Cr  0.07755926  0.71051715  0.29749624     1.93200
Cr1495     Cr  0.05156425  0.68323639  0.32840969     1.39100
O1496       O  0.07687146  0.69134802  0.31870914    -1.23800
O1497       O  0.10864799  0.62558789  0.16212596    -0.86000
O1498       O  0.13866885  0.65070020  0.18321953    -0.83100
C1499       C  0.14167729  0.64458881  0.20273598     0.97400
O1500       O  0.15128488  0.62749181  0.20642537    -0.83100
O1501       O  0.15849274  0.58599787  0.20260867    -0.85800
C1502       C  0.13859725  0.58333858  0.20440740     1.01900
O1503       O  0.12740821  0.58114584  0.18783986    -0.78500
O1504       O  0.11002350  0.59307198  0.15002250    -0.78700
C1505       C  0.09911565  0.60834089  0.15732093     1.01900
O1506       O  0.13776754  0.61928887  0.12414426    -0.86000
O1507       O  0.16870802  0.64356728  0.14574156    -0.83100
C1508       C  0.18504571  0.64510908  0.15773504     0.97400
O1509       O  0.18416585  0.63795920  0.17662077    -0.83100
O1510       O  0.18889125  0.59591891  0.16917934    -0.85700
C1511       C  0.18515961  0.57699560  0.16386356     1.01900
O1512       O  0.16673683  0.56900290  0.16642484    -0.78600
O1513       O  0.15043781  0.58692854  0.12982855    -0.78700
C1514       C  0.14525701  0.60151001  0.11685533     1.01900
Cr1515     Cr  0.13915002  0.63334484  0.15455456     1.93700
Cr1516     Cr  0.16929448  0.61167610  0.18710448     1.93200
Cr1517     Cr  0.13949177  0.58433125  0.15919819     1.39100
O1518       O  0.14935657  0.61006740  0.16669383    -1.23800
O1519       O  0.34350900  0.94149977  0.31397716    -0.86000
O1520       O  0.31026099  0.95692668  0.29130899    -0.83100
C1521       C  0.31194436  0.94534324  0.27467185     0.97400
O1522       O  0.30340949  0.92735972  0.27356875    -0.83100
O1523       O  0.29375159  0.88781889  0.28624275    -0.85800
C1524       C  0.31311486  0.88311378  0.28344880     1.01900
O1525       O  0.32592680  0.88631308  0.29887119    -0.78500
O1526       O  0.34737950  0.91058971  0.33002899    -0.78700
C1527       C  0.35562488  0.92759830  0.32178536     1.01900
O1528       O  0.31913363  0.94107360  0.35321086    -0.86000
O1529       O  0.28482040  0.95350620  0.33074523    -0.83100
C1530       C  0.26918484  0.95357515  0.31824718     0.97400
O1531       O  0.27068276  0.94529383  0.29994725    -0.83100
O1532       O  0.26555389  0.90623727  0.31695710    -0.85700
C1533       C  0.26808839  0.88851718  0.32570035     1.01900
O1534       O  0.28721300  0.88118872  0.32824356    -0.78600
O1535       O  0.30887964  0.90774346  0.35770024    -0.78700
C1536       C  0.31295073  0.92609210  0.36551223     1.01900
Cr1537     Cr  0.31372583  0.94646137  0.32179368     1.93700
Cr1538     Cr  0.28484081  0.91694715  0.29562801     1.93200
Cr1539     Cr  0.31658733  0.89768837  0.32784833     1.39100
O1540       O  0.30529419  0.92033295  0.31531372    -1.23800
O1541       O  0.36203429  0.84977436  0.12176329    -0.86000
O1542       O  0.33604051  0.82983508  0.15251583    -0.83100
C1543       C  0.34216484  0.81034211  0.15558975     0.97400
O1544       O  0.35958180  0.80682967  0.16457819    -0.83100
O1545       O  0.40026717  0.81036846  0.17530910    -0.85800
C1546       C  0.40419702  0.80776403  0.15569018     1.01900
O1547       O  0.40613885  0.82376234  0.14370955    -0.78500
O1548       O  0.39522135  0.86044268  0.12389551    -0.78700
C1549       C  0.37986434  0.85346062  0.11270459     1.01900
O1550       O  0.36880362  0.88842177  0.14944765    -0.86000
O1551       O  0.34432599  0.86839700  0.18157630    -0.83100
C1552       C  0.34174407  0.85622360  0.19768478     0.97400
O1553       O  0.34671712  0.83682702  0.19592763    -0.83100
O1554       O  0.38827010  0.84465002  0.20375100    -0.85700
C1555       C  0.40737212  0.84976387  0.20096233     1.01900
O1556       O  0.41632396  0.84703521  0.18294210    -0.78600
O1557       O  0.40053074  0.88268375  0.16357468    -0.78700
C1558       C  0.38667920  0.89566660  0.15688119     1.01900
Cr1559     Cr  0.35403343  0.85837733  0.15207390     1.93700
Cr1560     Cr  0.37396278  0.82623249  0.18350786     1.93200
Cr1561     Cr  0.40280809  0.85288017  0.15426520     1.39100
O1562       O  0.37674620  0.84609578  0.16317326    -1.23800
O1563       O  0.11248391  0.84533790  0.41437259    -0.86000
O1564       O  0.14595098  0.82466579  0.43107940    -0.06300
C1565       C  0.14378053  0.80753586  0.42037530     0.97400
O1566       O  0.15225728  0.80512912  0.40252013    -0.83100
O1567       O  0.16327769  0.81484394  0.36240280    -0.85800
C1568       C  0.14418981  0.81214818  0.35659303     1.01900
O1569       O  0.13133824  0.82756903  0.35915936    -0.78500
O1570       O  0.10855037  0.85825754  0.38186675    -0.78700
C1571       C  0.10038564  0.85059101  0.39923895     1.01900
O1572       O  0.13582866  0.88498217  0.41191804    -0.86000
O1573       O  0.17078270  0.86421776  0.42524154    -0.83100
C1574       C  0.18663484  0.85212123  0.42477883     0.97400
O1575       O  0.18429362  0.83287515  0.41952701    -0.83100
O1576       O  0.19096571  0.84668308  0.37957221    -0.85700
C1577       C  0.18850064  0.85481591  0.36153141     1.01900
O1578       O  0.16941129  0.85741183  0.35401923    -0.78600
O1579       O  0.14673750  0.88760798  0.37869293    -0.78700
C1580       C  0.14262138  0.89643718  0.39659612     1.01900
Cr1581     Cr  0.14200832  0.85416494  0.41895372     1.93700
Cr1582     Cr  0.17120821  0.82631397  0.39121801     1.93200
Cr1583     Cr  0.13970339  0.85708837  0.36974050     1.39100
O1584       O  0.15068946  0.84605256  0.39317477    -1.23800
O1585       O  0.39627626  0.19992011  0.01088450    -0.86000
O1586       O  0.37780605  0.23824136  0.02128452    -0.83100
C1587       C  0.37200790  0.25736305  0.01953169     0.97400
O1588       O  0.37979562  0.26933589  0.00527327    -0.83100
O1589       O  0.42289586  0.27186269  0.01528280    -0.85800
C1590       C  0.44168570  0.26474762  0.01739635     1.01900
O1591       O  0.44811763  0.24866888  0.00644633    -0.78500
O1592       O  0.42836326  0.21126433  0.01687274    -0.78700
C1593       C  0.41157525  0.20217802  0.02372503     1.01900
O1594       O  0.38717335  0.20909460  0.96679519    -0.86000
O1595       O  0.36630740  0.24373680  0.97719841    -0.83100
C1596       C  0.37253690  0.25453863  0.96131957     0.97400
O1597       O  0.39071966  0.26342032  0.96149008    -0.83100
O1598       O  0.43273494  0.27265059  0.97220963    -0.85700
C1599       C  0.44193935  0.26094158  0.95896782     1.01900
O1600       O  0.44028238  0.24084815  0.96040127    -0.78600
O1601       O  0.42147020  0.20235602  0.96784676    -0.78700
C1602       C  0.40341950  0.20142662  0.95803467     1.01900
Cr1603     Cr  0.38398189  0.22375741  0.99403564     1.93700
Cr1604     Cr  0.40646963  0.26704724  0.98866934     1.93200
Cr1605     Cr  0.43287172  0.22607697  0.98817456     1.39100
O1606       O  0.40803696  0.23884003  0.99052082    -1.23800
O1607       O  0.00060961  0.43183427  0.16947946    -0.86000
O1608       O  0.01845954  0.41128582  0.20315505    -0.83100
C1609       C  0.02219730  0.40665327  0.22229444     0.97400
O1610       O  0.00959823  0.41189667  0.23730379    -0.83100
O1611       O  0.01256993  0.45533618  0.24375129    -0.85800
C1612       C  0.01203795  0.47455723  0.23762816     1.01900
O1613       O  0.99992892  0.48033293  0.22228429    -0.78500
O1614       O  0.00942383  0.46169547  0.18392490    -0.78700
C1615       C  0.01482866  0.44572443  0.17278652     1.01900
O1616       O  0.95909855  0.41864251  0.18514155    -0.86000
O1617       O  0.97817130  0.39445550  0.21560472    -0.83100
C1618       C  0.96461285  0.39787016  0.23005532     0.97400
O1619       O  0.96361856  0.41578220  0.23912113    -0.83100
O1620       O  0.96801874  0.45835653  0.24908903    -0.85700
C1621       C  0.95468117  0.46923989  0.23863997     1.01900
O1622       O  0.95543984  0.46980342  0.21826186    -0.78600
O1623       O  0.96085840  0.45287715  0.17751216    -0.78700
C1624       C  0.95066946  0.43498722  0.17706821     1.01900
Cr1625     Cr  0.98884827  0.41600101  0.19457323     1.93700
Cr1626     Cr  0.98826873  0.43538293  0.24001736     1.93200
Cr1627     Cr  0.98176433  0.46433560  0.20065834     1.39100
O1628       O  0.98627443  0.43882934  0.21190300    -1.23800
O1629       O  0.15741782  0.03678364  0.40433155    -0.86000
O1630       O  0.19144308  0.05558672  0.38445208    -0.83100
C1631       C  0.21064425  0.05939232  0.38018987     0.97400
O1632       O  0.22551576  0.04651224  0.38535579    -0.83100
O1633       O  0.23270646  0.04878524  0.42849393    -0.85800
C1634       C  0.22632469  0.04915074  0.44759655     1.01900
O1635       O  0.21002817  0.03810299  0.45337931    -0.78500
O1636       O  0.17166141  0.04777033  0.43352456    -0.78700
C1637       C  0.16004099  0.05178622  0.41745391     1.01900
O1638       O  0.17395309  0.99595632  0.39171719    -0.86000
O1639       O  0.20405250  0.01583758  0.36737051    -0.83100
C1640       C  0.21795945  0.00183995  0.37084504     0.97400
O1641       O  0.22623144  0.00006283  0.38914831    -0.83100
O1642       O  0.23525663  0.00414565  0.43243463    -0.85700
C1643       C  0.22392727  0.99167552  0.44367636     1.01900
O1644       O  0.20380407  0.99317952  0.44376619    -0.78600
O1645       O  0.16461695  0.99883360  0.42549854    -0.78700
C1646       C  0.16505221  0.98795880  0.40793613     1.01900
Cr1647     Cr  0.18285004  0.02586710  0.38885075     1.93700
Cr1648     Cr  0.22774223  0.02466252  0.40882726     1.93200
Cr1649     Cr  0.18779764  0.01990112  0.43731905     1.39100
O1650       O  0.19969095  0.02355402  0.41198340    -1.23800
O1651       O  0.17551575  0.41454273  0.96664916    -0.86000
O1652       O  0.20689681  0.38979366  0.98197603    -0.83100
C1653       C  0.22079893  0.39455886  0.96812102     0.97400
O1654       O  0.22977431  0.41265910  0.96824311    -0.83100
O1655       O  0.23897407  0.45511082  0.97724154    -0.85800
C1656       C  0.22800377  0.46540370  0.96386864     1.01900
O1657       O  0.20782909  0.46458096  0.96431960    -0.78500
O1658       O  0.16778350  0.44834848  0.97099133    -0.78700
C1659       C  0.16763040  0.43148861  0.95930596     1.01900
O1660       O  0.16198953  0.42440626  0.00994224    -0.86000
O1661       O  0.19657080  0.40302031  0.02449937    -0.83100
C1662       C  0.21575920  0.39796233  0.02672506     0.97400
O1663       O  0.22984332  0.40363060  0.01333064    -0.83100
O1664       O  0.23433446  0.44647859  0.02132008    -0.85700
C1665       C  0.22926560  0.46594627  0.02168329     1.01900
O1666       O  0.21488259  0.47322345  0.00917819    -0.78600
O1667       O  0.17642560  0.45430890  0.01940635    -0.78700
C1668       C  0.16544235  0.43802129  0.02441583     1.01900
Cr1669     Cr  0.18628523  0.40973964  0.99567545     1.93700
Cr1670     Cr  0.23113543  0.42955533  0.99486158     1.93200
Cr1671     Cr  0.19193065  0.45839079  0.99126998     1.39100
O1672       O  0.20315850  0.43274244  0.99394288    -1.23800
O1673       O  0.39787739  0.00077121  0.16815618    -0.86000
O1674       O  0.37649770  0.98229243  0.20144837    -0.83100
C1675       C  0.37115610  0.97874818  0.22046998     0.97400
O1676       O  0.37842712  0.98973903  0.23581543    -0.83100
O1677       O  0.42140920  0.98354959  0.23835680    -0.85800
C1678       C  0.44084484  0.98527234  0.23371904     1.01900
O1679       O  0.44730487  0.99934190  0.22046132    -0.78500
O1680       O  0.42786648  0.99071564  0.18160164    -0.78700
C1681       C  0.41147011  0.98616732  0.17053724     1.01900
O1682       O  0.38637136  0.04196113  0.18549758    -0.86000
O1683       O  0.36284941  0.02285511  0.21565894    -0.83100
C1684       C  0.36681075  0.03388483  0.23202215     0.97400
O1685       O  0.38498671  0.03420481  0.24068243    -0.83100
O1686       O  0.42816635  0.02748535  0.24771701    -0.85700
C1687       C  0.43733113  0.04253692  0.23782417     1.01900
O1688       O  0.43630352  0.04367784  0.21752840    -0.78600
O1689       O  0.42006709  0.03943976  0.17658591    -0.78700
C1690       C  0.40271181  0.05027180  0.17729892     1.01900
Cr1691     Cr  0.38278021  0.01203810  0.19373199     1.93700
Cr1692     Cr  0.40340908  0.00907996  0.23848679     1.93200
Cr1693     Cr  0.43120117  0.01790173  0.19918272     1.39100
O1694       O  0.40587166  0.01314649  0.21056936    -1.23800
O1695       O  0.96435178  0.19462549  0.40852979    -0.86000
O1696       O  0.94704323  0.22958991  0.38968611    -0.83100
C1697       C  0.94358879  0.24892915  0.38595988     0.97400
O1698       O  0.95618753  0.26354557  0.39227472    -0.83100
O1699       O  0.95149520  0.26749771  0.43518674    -0.85800
C1700       C  0.95022895  0.26007340  0.45386544     1.01900
O1701       O  0.96144115  0.24423531  0.45981949    -0.78500
O1702       O  0.95306451  0.20724638  0.43827265    -0.78700
C1703       C  0.94915297  0.19660707  0.42151842     1.01900
O1704       O  0.00584897  0.21138053  0.39842463    -0.86000
O1705       O  0.98758357  0.24300231  0.37498437    -0.83100
C1706       C  0.00044231  0.25786471  0.37934955     0.97400
O1707       O  0.00190586  0.26512021  0.39804343    -0.83100
O1708       O  0.99590573  0.27213526  0.44106079    -0.85700
C1709       C  0.00789052  0.26111827  0.45294853     1.01900
O1710       O  0.00645368  0.24084481  0.45302689    -0.78600
O1711       O  0.00230878  0.20178218  0.43223778    -0.78700
C1712       C  0.01339980  0.20259676  0.41489767     1.01900
Cr1713     Cr  0.97638710  0.22075197  0.39490529     1.93700
Cr1714     Cr  0.97660717  0.26478441  0.41667707     1.93200
Cr1715     Cr  0.98061460  0.22379595  0.44394528     1.39100
O1716       O  0.97806416  0.23662217  0.41880908    -1.23800
O1717       O  0.35016941  0.34356527  0.07513064    -0.86000
O1718       O  0.31360324  0.32529570  0.05929070    -0.83100
C1719       C  0.31680209  0.30760745  0.06855835     0.97400
O1720       O  0.31173393  0.30520298  0.08779311    -0.83100
O1721       O  0.30416013  0.31495161  0.12931556    -0.85800
C1722       C  0.32369089  0.31316361  0.13366694     1.01900
O1723       O  0.33558281  0.32946546  0.13105900    -0.78500
O1724       O  0.35555502  0.36034841  0.10565240    -0.78700
C1725       C  0.36295494  0.35148150  0.08862447     1.01900
O1726       O  0.32968291  0.38386622  0.07790858    -0.86000
O1727       O  0.29203476  0.36486330  0.06745588    -0.83100
C1728       C  0.27574178  0.35321536  0.06915175     0.97400
O1729       O  0.27747313  0.33395389  0.07500648    -0.83100
O1730       O  0.27385267  0.34542939  0.11579537    -0.85700
C1731       C  0.27786377  0.35615763  0.13224094     1.01900
O1732       O  0.29740751  0.35953561  0.13799494    -0.78600
O1733       O  0.31767701  0.38856511  0.11035091    -0.78700
C1734       C  0.32253853  0.39625372  0.09210289     1.01900
Cr1735     Cr  0.32073775  0.35378607  0.07174510     1.93700
Cr1736     Cr  0.29338898  0.32623548  0.10162748     1.93200
Cr1737     Cr  0.32574142  0.35861389  0.12022361     1.39100
O1738       O  0.31334025  0.34643489  0.09809070    -1.23800
O1739       O  0.32707873  0.09727223  0.35699240    -0.86000
O1740       O  0.28792718  0.08551366  0.34115385    -0.83100
C1741       C  0.27118854  0.08733470  0.33011032     0.97400
O1742       O  0.27241850  0.09005361  0.31007221    -0.83100
O1743       O  0.26835764  0.13161142  0.31498129    -0.85800
C1744       C  0.27144962  0.14796279  0.32602981     1.01900
O1745       O  0.29064896  0.15388875  0.33058359    -0.78500
O1746       O  0.31258076  0.12844170  0.36029369    -0.78700
C1747       C  0.31922567  0.11130955  0.36890223     1.01900
O1748       O  0.34483061  0.09217190  0.31616496    -0.86000
O1749       O  0.30757748  0.07266182  0.30204530    -0.83100
C1750       C  0.31013839  0.07950884  0.28324733     0.97400
O1751       O  0.30605978  0.09860470  0.27900520    -0.83100
O1752       O  0.29899376  0.14079772  0.28251724    -0.85700
C1753       C  0.31724508  0.14935222  0.28323173     1.01900
O1754       O  0.32795959  0.14853146  0.30050834    -0.78600
O1755       O  0.35003062  0.12398775  0.33063285    -0.78700
C1756       C  0.35755706  0.10665323  0.32240521     1.01900
Cr1757     Cr  0.31612663  0.08868216  0.32825705     1.93700
Cr1758     Cr  0.28811932  0.11517096  0.29814603     1.93200
Cr1759     Cr  0.31951001  0.13736392  0.32970446     1.39100
O1760       O  0.30808524  0.11414704  0.31860543    -1.23800
O1761       O  0.09007110  0.35776894  0.36194329    -0.86000
O1762       O  0.11399400  0.32697109  0.34020084    -0.83100
C1763       C  0.11577005  0.31110712  0.32765306     0.97400
O1764       O  0.10942799  0.31298458  0.30859228    -0.83100
O1765       O  0.06742757  0.30597777  0.31672903    -0.85800
C1766       C  0.04869151  0.30943248  0.32279332     1.01900
O1767       O  0.04048968  0.32770545  0.32004444    -0.78500
O1768       O  0.05803135  0.34410296  0.35657693    -0.78700
C1769       C  0.07247666  0.34992511  0.36937625     1.01900
O1770       O  0.09574513  0.38713005  0.32429022    -0.86000
O1771       O  0.12135604  0.35764245  0.30298701    -0.83100
C1772       C  0.11479727  0.35525553  0.28355174     0.97400
O1773       O  0.09741122  0.34604004  0.28008184    -0.83100
O1774       O  0.05636854  0.33677811  0.28378942    -0.85700
C1775       C  0.05311983  0.35660618  0.28223649     1.01900
O1776       O  0.05146088  0.36765225  0.29890391    -0.78600
O1777       O  0.06341037  0.38492952  0.33677050    -0.78700
C1778       C  0.07837550  0.39626884  0.32925511     1.01900
Cr1779     Cr  0.10396801  0.35667867  0.33164716     1.93700
Cr1780     Cr  0.08248257  0.32673116  0.29890640     1.93200
Cr1781     Cr  0.05507244  0.35533559  0.32740015     1.39100
O1782       O  0.08076157  0.34621496  0.31960065    -1.23800
O1783       O  0.11221091  0.17885542  0.38173738    -0.86000
O1784       O  0.13346345  0.20989411  0.35743784    -0.83100
C1785       C  0.14536893  0.22632106  0.35582752     0.97400
O1786       O  0.16442397  0.22519784  0.36214482    -0.83100
O1787       O  0.15521357  0.23308182  0.40357248    -0.85800
C1788       C  0.14950177  0.23015711  0.42254409     1.01900
O1789       O  0.15221452  0.21221551  0.43141777    -0.78500
O1790       O  0.11629750  0.19494073  0.41285442    -0.78700
C1791       C  0.10411005  0.18741072  0.39859185     1.01900
O1792       O  0.15002234  0.15037429  0.37817498    -0.86000
O1793       O  0.17158703  0.18023596  0.35204909    -0.83100
C1794       C  0.19084070  0.18357473  0.35864725     0.97400
O1795       O  0.19403203  0.19384882  0.37554820    -0.83100
O1796       O  0.18896900  0.20352838  0.41653760    -0.85700
C1797       C  0.19022405  0.18398315  0.42153485     1.01900
O1798       O  0.17364912  0.17264032  0.42253226    -0.78600
O1799       O  0.13626158  0.15445931  0.40996663    -0.78700
C1800       C  0.14417869  0.14232147  0.39598408     1.01900
Cr1801     Cr  0.14259868  0.18066483  0.36856230     1.93700
Cr1802     Cr  0.17404017  0.21253312  0.38967795     1.93200
Cr1803     Cr  0.14532956  0.18424394  0.41742776     1.39100
O1804       O  0.15391078  0.19233963  0.39161051    -1.23800
O1805       O  0.15505132  0.40633389  0.12637761    -0.86000
O1806       O  0.17785053  0.38479753  0.15867271    -0.83100
C1807       C  0.19674433  0.39260683  0.16186266     0.97400
O1808       O  0.19881941  0.41054748  0.17051154    -0.83100
O1809       O  0.19050783  0.45197109  0.17647445    -0.85800
C1810       C  0.19305229  0.45387221  0.15656974     1.01900
O1811       O  0.17704137  0.45369716  0.14442128    -0.78500
O1812       O  0.14042279  0.43782399  0.12693379    -0.78700
C1813       C  0.14914759  0.42305099  0.11646729     1.01900
O1814       O  0.11617658  0.41072878  0.15496051    -0.86000
O1815       O  0.13942141  0.39043875  0.18754112    -0.83100
C1816       C  0.15135683  0.39028043  0.20403345     0.97400
O1817       O  0.16969175  0.39841590  0.20285549    -0.83100
O1818       O  0.15753964  0.43962628  0.20608241    -0.85700
C1819       C  0.15083416  0.45786818  0.20147219     1.01900
O1820       O  0.15346607  0.46539594  0.18282392    -0.78600
O1821       O  0.11925088  0.44393406  0.16643310    -0.78700
C1822       C  0.10751782  0.42812208  0.16190860     1.01900
Cr1823     Cr  0.14775566  0.39950166  0.15749615     1.93700
Cr1824     Cr  0.17758011  0.42512905  0.18750900     1.93200
Cr1825     Cr  0.14838560  0.44858327  0.15596869     1.39100
O1826       O  0.15774095  0.42407868  0.16692292    -1.23800
O1827       O  0.41011979  0.19288602  0.12840603    -0.86000
O1828       O  0.42899005  0.20899374  0.16478808    -0.83100
C1829       C  0.42112828  0.22740964  0.16236809     0.97400
O1830       O  0.40248050  0.23120719  0.16848228    -0.83100
O1831       O  0.36062877  0.22576501  0.17705762    -0.85800
C1832       C  0.35385604  0.22731192  0.15812568     1.01900
O1833       O  0.35473363  0.21112238  0.14589330    -0.78500
O1834       O  0.37765556  0.17975579  0.12404933    -0.78700
C1835       C  0.39506576  0.18735822  0.11605673     1.01900
O1836       O  0.40450911  0.15240417  0.14880093    -0.86000
O1837       O  0.41750399  0.16960991  0.18626911    -0.83100
C1838       C  0.41602367  0.18065417  0.20298153     0.97400
O1839       O  0.41313009  0.20052454  0.20147135    -0.83100
O1840       O  0.37162503  0.19266904  0.20611331    -0.85700
C1841       C  0.35444168  0.18289155  0.20275292     1.01900
O1842       O  0.34760632  0.18069324  0.18341479    -0.78600
O1843       O  0.37233593  0.15069886  0.16195346    -0.78700
C1844       C  0.38953083  0.14137258  0.15667940     1.01900
Cr1845     Cr  0.41353188  0.18181852  0.15776888     1.93700
Cr1846     Cr  0.38708913  0.21117784  0.18668910     1.93200
Cr1847     Cr  0.36446962  0.18128848  0.15454438     1.39100
O1848       O  0.38809924  0.19145113  0.16609792    -1.23800
O1849       O  0.88894086  0.69249101  0.51101948    -0.86000
O1850       O  0.86947109  0.72806530  0.52663866    -0.83100
C1851       C  0.86440128  0.74732770  0.52835657     0.97400
O1852       O  0.87307959  0.76161889  0.51694128    -0.83100
O1853       O  0.91623092  0.76360062  0.52418116    -0.85800
C1854       C  0.93535050  0.75756686  0.52389560     1.01900
O1855       O  0.94120306  0.74212217  0.51198100    -0.78500
O1856       O  0.91936332  0.70472124  0.52172650    -0.78700
C1857       C  0.90235092  0.69448329  0.52596093     1.01900
O1858       O  0.87995985  0.70794098  0.46831613    -0.86000
O1859       O  0.85735698  0.74036763  0.48459281    -0.83100
C1860       C  0.86252022  0.75607244  0.47304345     0.97400
O1861       O  0.88144588  0.76274835  0.47220472    -0.83100
O1862       O  0.92422028  0.76852370  0.48021002    -0.85700
C1863       C  0.93372270  0.75734742  0.46647380     1.01900
O1864       O  0.93221936  0.73709958  0.46690392    -0.78600
O1865       O  0.91305262  0.69761263  0.47280386    -0.78700
C1866       C  0.89610256  0.69849082  0.46118582     1.01900
Cr1867     Cr  0.87591810  0.71817703  0.49757472     1.93700
Cr1868     Cr  0.89876292  0.76186101  0.49825898     1.93200
Cr1869     Cr  0.92475614  0.72068618  0.49367824     1.39100
O1870       O  0.89998157  0.73365956  0.49647861    -1.23800
O1871       O  0.50008898  0.91745107  0.68260846    -0.86000
O1872       O  0.48192080  0.89544677  0.71433924    -0.83100
C1873       C  0.49552588  0.90000930  0.72851838     0.97400
O1874       O  0.49659874  0.91840368  0.73662633    -0.83100
O1875       O  0.48984184  0.96157330  0.74404438    -0.85800
C1876       C  0.50427590  0.97094472  0.73348031     1.01900
O1877       O  0.50475101  0.96932546  0.71321787    -0.78500
O1878       O  0.49868183  0.95118348  0.67309258    -0.78700
C1879       C  0.50853153  0.93318005  0.67344440     1.01900
O1880       O  0.45912367  0.92975544  0.66648649    -0.86000
O1881       O  0.44111103  0.91057781  0.70133141    -0.83100
C1882       C  0.43805084  0.90618469  0.72066578     0.97400
O1883       O  0.45120540  0.91178366  0.73505317    -0.83100
O1884       O  0.44567904  0.95452128  0.73728124    -0.85700
C1885       C  0.44660357  0.97374542  0.73157390     1.01900
O1886       O  0.46004605  0.98006988  0.71752419    -0.78600
O1887       O  0.45052198  0.96033937  0.67942751    -0.78700
C1888       C  0.44507718  0.94378295  0.66912447     1.01900
Cr1889     Cr  0.47069007  0.91511633  0.69217562     1.93700
Cr1890     Cr  0.47114772  0.93658727  0.73619140     1.93200
Cr1891     Cr  0.47816448  0.96360407  0.69599373     1.39100
O1892       O  0.47344010  0.93862477  0.70814906    -1.23800
O1893       O  0.65732127  0.93079760  0.47323793    -0.86000
O1894       O  0.69100908  0.91051880  0.45482457    -0.83100
C1895       C  0.71004999  0.90601378  0.45085882     0.97400
O1896       O  0.72513768  0.91123672  0.46346904    -0.83100
O1897       O  0.73157158  0.95434974  0.45944022    -0.85800
C1898       C  0.72486864  0.97330078  0.45834559     1.01900
O1899       O  0.70934803  0.97958225  0.46989088    -0.78500
O1900       O  0.67119064  0.96005264  0.46217292    -0.78700
C1901       C  0.65995106  0.94378492  0.45808418     1.01900
O1902       O  0.67395203  0.91896090  0.51445928    -0.86000
O1903       O  0.70385791  0.89456616  0.49494983    -0.83100
C1904       C  0.71798527  0.89824465  0.50875076     0.97400
O1905       O  0.72698021  0.91626174  0.50971338    -0.83100
O1906       O  0.73672505  0.95906270  0.50402971    -0.85700
C1907       C  0.72625985  0.97128194  0.51613376     1.01900
O1908       O  0.70602746  0.97185557  0.51513624    -0.78600
O1909       O  0.66630902  0.95319202  0.51174833    -0.78700
C1910       C  0.66650415  0.93569749  0.52268932     1.01900
Cr1911     Cr  0.68271951  0.91564325  0.48450034     1.93700
Cr1912     Cr  0.72786711  0.93528246  0.48442372     1.93200
Cr1913     Cr  0.68839208  0.96427543  0.48947013     1.39100
O1914       O  0.69986462  0.93871074  0.48621105    -1.23800
O1915       O  0.88053481  0.48903887  0.68707354    -0.86000
O1916       O  0.85740274  0.50526659  0.71859823    -0.83100
C1917       C  0.86297387  0.49190063  0.73266077     0.97400
O1918       O  0.88092449  0.49338778  0.74184950    -0.83100
O1919       O  0.92364444  0.50332720  0.74960491    -0.85800
C1920       C  0.93362190  0.48924177  0.73932102     1.01900
O1921       O  0.93195345  0.48820035  0.71910689    -0.78500
O1922       O  0.91439821  0.49246158  0.67878750    -0.78700
C1923       C  0.89706022  0.48135595  0.67890885     1.01900
O1924       O  0.89067888  0.53115981  0.67137746    -0.86000
O1925       O  0.86990284  0.54746651  0.70592120    -0.83100
C1926       C  0.86387844  0.54929151  0.72492113     0.97400
O1927       O  0.87147236  0.53769582  0.73965787    -0.83100
O1928       O  0.91473772  0.54692620  0.74217768    -0.85700
C1929       C  0.93415354  0.54683566  0.73667319     1.01900
O1930       O  0.94088509  0.53341466  0.72287625    -0.78600
O1931       O  0.92083979  0.54133332  0.68456088    -0.78700
C1932       C  0.90406542  0.54592006  0.67421431     1.01900
Cr1933     Cr  0.87651590  0.51832092  0.69679578     1.93700
Cr1934     Cr  0.89772748  0.52013441  0.74125098     1.93200
Cr1935     Cr  0.92531772  0.51410877  0.70147172     1.39100
O1936       O  0.90000676  0.51744149  0.71320610    -1.23800
O1937       O  0.45192392  0.70949272  0.89432151    -0.86000
O1938       O  0.47116929  0.74022766  0.87120459    -0.83100
C1939       C  0.45953831  0.75609811  0.87516532     0.97400
O1940       O  0.45883670  0.76449639  0.89345626    -0.83100
O1941       O  0.46378059  0.77103917  0.93719488    -0.85800
C1942       C  0.44897102  0.76054948  0.94634875     1.01900
O1943       O  0.44840224  0.74032524  0.94486115    -0.78500
O1944       O  0.45436127  0.69999216  0.92803564    -0.78700
C1945       C  0.44379555  0.70057587  0.91039781     1.01900
O1946       O  0.49327080  0.69294988  0.90695151    -0.86000
O1947       O  0.51150525  0.72627396  0.88615751    -0.83100
C1948       C  0.51531438  0.74527392  0.88119488     0.97400
O1949       O  0.50394297  0.76050020  0.88815146    -0.83100
O1950       O  0.50852961  0.76310948  0.93159354    -0.85700
C1951       C  0.50634106  0.75849608  0.95103884     1.01900
O1952       O  0.49243253  0.74481466  0.95698973    -0.78600
O1953       O  0.50256619  0.70662241  0.93716654    -0.78700
C1954       C  0.50775405  0.69611755  0.92063911     1.01900
Cr1955     Cr  0.48178587  0.71826459  0.89151142     1.93700
Cr1956     Cr  0.48347215  0.76271135  0.91269344     1.93200
Cr1957     Cr  0.47487691  0.72308674  0.94005995     1.39100
O1958       O  0.47986770  0.73481051  0.91481335    -1.23800
O1959       O  0.66998389  0.54240901  0.89271155    -0.86000
O1960       O  0.70247330  0.52946900  0.86882050    -0.83100
C1961       C  0.71463671  0.54478765  0.87373479     0.97400
O1962       O  0.72424118  0.54500431  0.89149951    -0.83100
O1963       O  0.73533513  0.53774682  0.93336551    -0.85800
C1964       C  0.72411868  0.55046634  0.94400098     1.01900
O1965       O  0.70391570  0.54859554  0.94401001    -0.78500
O1966       O  0.66405113  0.54025640  0.92725861    -0.78700
C1967       C  0.66260918  0.55053067  0.90952725     1.01900
O1968       O  0.65972052  0.49876630  0.90371795    -0.86000
O1969       O  0.69588219  0.48626518  0.88266955    -0.83100
C1970       C  0.71501340  0.48623468  0.87664170     0.97400
O1971       O  0.72807773  0.50028903  0.88306486    -0.83100
O1972       O  0.73359111  0.49357227  0.92694229    -0.85700
C1973       C  0.72716424  0.49255355  0.94615191     1.01900
O1974       O  0.71147713  0.50375062  0.95259033    -0.78600
O1975       O  0.67385288  0.49215372  0.93444054    -0.78700
C1976       C  0.66369921  0.48543012  0.91824424     1.01900
Cr1977     Cr  0.68317519  0.51434431  0.88897910     1.93700
Cr1978     Cr  0.72802226  0.51903186  0.90876683     1.93200
Cr1979     Cr  0.68853954  0.52091694  0.93772474     1.39100
O1980       O  0.69993184  0.51799103  0.91207593    -1.23800
O1981       O  0.80531490  0.88183184  0.60302890    -0.86000
O1982       O  0.78440537  0.85384911  0.63174546    -0.83100
C1983       C  0.76496468  0.85118429  0.62548876     0.97400
O1984       O  0.76127188  0.84170937  0.60824803    -0.83100
O1985       O  0.76474236  0.82579683  0.56862564    -0.85800
C1986       C  0.76433279  0.84391225  0.55972099     1.01900
O1987       O  0.78074268  0.85544220  0.55893447    -0.78500
O1988       O  0.81686068  0.87608115  0.57035300    -0.78700
C1989       C  0.81068037  0.88895210  0.58469728     1.01900
O1990       O  0.84291345  0.85406651  0.60044899    -0.86000
O1991       O  0.82199059  0.82401149  0.62576935    -0.83100
C1992       C  0.80973059  0.80818268  0.62893801     0.97400
O1993       O  0.79010617  0.81059701  0.62513690    -0.83100
O1994       O  0.79741767  0.79769773  0.58496054    -0.85700
C1995       C  0.80411713  0.79830354  0.56614225     1.01900
O1996       O  0.80313987  0.81533865  0.55514264    -0.78600
O1997       O  0.83887260  0.83573645  0.57078584    -0.78700
C1998       C  0.85110774  0.84453240  0.58424727     1.01900
Cr1999     Cr  0.81277228  0.85253452  0.61410798     1.93700
Cr2000     Cr  0.77994822  0.82035342  0.59638882     1.93200
Cr2001     Cr  0.80921894  0.84513195  0.56568636     1.39100
O2002       O  0.80073337  0.83955484  0.59210930    -1.23800
O2003       O  0.54930010  0.87762237  0.81664321    -0.86000
O2004       O  0.53256797  0.84123412  0.79863416    -0.83100
C2005       C  0.54139109  0.84412338  0.78068266     0.97400
O2006       O  0.56060983  0.83948867  0.77800982    -0.83100
O2007       O  0.60226132  0.83249625  0.78626058    -0.85800
C2008       C  0.60797654  0.85181963  0.78569248     1.01900
O2009       O  0.60544734  0.86307737  0.80241106    -0.78500
O2010       O  0.58014979  0.88305369  0.83282102    -0.78700
C2011       C  0.56330885  0.89044962  0.82355710     1.01900
O2012       O  0.55235237  0.85678235  0.85715989    -0.86000
O2013       O  0.54192145  0.81931827  0.83801829    -0.83100
C2014       C  0.54415280  0.80306596  0.82650317     0.97400
O2015       O  0.54879309  0.80511007  0.80693664    -0.83100
O2016       O  0.58929385  0.80232963  0.81767941    -0.85700
C2017       C  0.60619557  0.80547343  0.82765473     1.01900
O2018       O  0.61222839  0.82477664  0.83162845    -0.78600
O2019       O  0.58451097  0.84439358  0.86137321    -0.78700
C2020       C  0.56635431  0.84890118  0.86933788     1.01900
Cr2021     Cr  0.54579218  0.84817155  0.82695149     1.93700
Cr2022     Cr  0.57500854  0.82142975  0.79862829     1.93200
Cr2023     Cr  0.59434832  0.85303223  0.83130302     1.39100
O2024       O  0.57196718  0.84109598  0.81899294    -1.23800
O2025       O  0.84827884  0.62981332  0.82963426    -0.86000
O2026       O  0.82405424  0.65339406  0.79933275    -0.83100
C2027       C  0.81006379  0.65613925  0.78481522     0.97400
O2028       O  0.79135618  0.65021803  0.78878973    -0.83100
O2029       O  0.80392742  0.61050671  0.77704304    -0.85800
C2030       C  0.81015504  0.59162019  0.77778615     1.01900
O2031       O  0.80958919  0.58101341  0.79515008    -0.78500
O2032       O  0.84381504  0.59819940  0.81489654    -0.78700
C2033       C  0.85614710  0.61263228  0.82157170     1.01900
O2034       O  0.81182559  0.63190992  0.85963100    -0.86000
O2035       O  0.78721901  0.65687953  0.83118589    -0.83100
C2036       C  0.76816118  0.64895871  0.82926710     0.97400
O2037       O  0.76565380  0.63121530  0.82048057    -0.83100
O2038       O  0.77239131  0.59216674  0.80423035    -0.85700
C2039       C  0.77055660  0.58566793  0.82313934     1.01900
O2040       O  0.78641568  0.58578403  0.83541320    -0.78600
O2041       O  0.82241343  0.59879455  0.85541077    -0.78700
C2042       C  0.81678240  0.61387281  0.86762232     1.01900
Cr2043     Cr  0.81716028  0.64179911  0.82918027     1.93700
Cr2044     Cr  0.78492151  0.62084705  0.79893089     1.93200
Cr2045     Cr  0.81484219  0.59271400  0.82474320     1.39100
O2046       O  0.80587293  0.61858114  0.81797011    -1.23800
O2047       O  0.63502312  0.65252931  0.91313700    -0.86000
O2048       O  0.67022954  0.67350272  0.92706681    -0.83100
C2049       C  0.68559586  0.68640713  0.92764529     0.97400
O2050       O  0.68294451  0.70557618  0.92235966    -0.83100
O2051       O  0.69079155  0.69302170  0.88209795    -0.85800
C2052       C  0.68863638  0.68398536  0.86440818     1.01900
O2053       O  0.66970564  0.68094786  0.85660388    -0.78500
O2054       O  0.64650871  0.65055919  0.88011634    -0.78700
C2055       C  0.64166475  0.64140749  0.89762746     1.01900
O2056       O  0.61175677  0.69183119  0.91576589    -0.86000
O2057       O  0.64524578  0.71216180  0.93392555    -0.83100
C2058       C  0.64339607  0.72995805  0.92427721     0.97400
O2059       O  0.65033880  0.73257902  0.90570640    -0.83100
O2060       O  0.66290762  0.72402717  0.86539690    -0.85700
C2061       C  0.64405525  0.72586649  0.85886707     1.01900
O2062       O  0.63141439  0.71015138  0.86097777    -0.78600
O2063       O  0.60826038  0.67911188  0.88308634    -0.78700
C2064       C  0.59987276  0.68669993  0.90032085     1.01900
Cr2065     Cr  0.64130377  0.68313780  0.92073123     1.93700
Cr2066     Cr  0.67016153  0.71228767  0.89401645     1.93200
Cr2067     Cr  0.63966056  0.68089663  0.87153403     1.39100
O2068       O  0.65015488  0.69186373  0.89523966    -1.23800
O2069       O  0.86349998  0.64430483  0.65479281    -0.86000
O2070       O  0.84062886  0.66940871  0.68488278    -0.83100
C2071       C  0.83874177  0.68355363  0.69940934     0.97400
O2072       O  0.84504016  0.70222183  0.69532095    -0.83100
O2073       O  0.88531567  0.69125785  0.70534590    -0.85800
C2074       C  0.90382333  0.68415381  0.70420648     1.01900
O2075       O  0.91379111  0.68425975  0.68655165    -0.78500
O2076       O  0.89447258  0.64915131  0.67055725    -0.78700
C2077       C  0.88015855  0.63662338  0.66415068     1.01900
O2078       O  0.86094037  0.68104523  0.62394097    -0.86000
O2079       O  0.83573506  0.70499852  0.65217358    -0.83100
C2080       C  0.84371573  0.72404052  0.65242629     0.97400
O2081       O  0.86144656  0.72735802  0.66118832    -0.83100
O2082       O  0.90161313  0.72158525  0.67443656    -0.85700
C2083       C  0.90745427  0.72128827  0.65512692     1.01900
O2084       O  0.90773438  0.70401465  0.64505809    -0.78600
O2085       O  0.89274749  0.66744834  0.62830188    -0.78700
C2086       C  0.87871727  0.67530826  0.61597094     1.01900
Cr2087     Cr  0.85144650  0.67555630  0.65462250     1.93700
Cr2088     Cr  0.87353511  0.70900878  0.68290168     1.93200
Cr2089     Cr  0.90043722  0.67698015  0.65813063     1.39100
O2090       O  0.87496944  0.68709076  0.66498545    -1.23800
O2091       O  0.63894411  0.90625869  0.62316370    -0.86000
O2092       O  0.66868109  0.88419537  0.64801515    -0.83100
C2093       C  0.68515562  0.88505091  0.65991653     0.97400
O2094       O  0.68433116  0.89442028  0.67771492    -0.83100
O2095       O  0.68705092  0.93619687  0.66753100    -0.85800
C2096       C  0.68204420  0.95447535  0.66104574     1.01900
O2097       O  0.66318290  0.96092399  0.66331243    -0.78500
O2098       O  0.65102629  0.93934254  0.62658265    -0.78700
C2099       C  0.64668522  0.92350141  0.61471656     1.01900
O2100       O  0.60776785  0.90239663  0.66003920    -0.86000
O2101       O  0.63691460  0.87958537  0.68431455    -0.83100
C2102       C  0.63950161  0.88710727  0.70331969     0.97400
O2103       O  0.64997346  0.90403497  0.70601916    -0.83100
O2104       O  0.65467424  0.94571621  0.69899839    -0.85700
C2105       C  0.63463713  0.94756142  0.69975084     1.01900
O2106       O  0.62385763  0.94757342  0.68269801    -0.78600
O2107       O  0.61004275  0.93283665  0.64370658    -0.78700
C2108       C  0.59867530  0.91893969  0.65272543     1.01900
Cr2109     Cr  0.63875192  0.89456509  0.65451677     1.93700
Cr2110     Cr  0.66763416  0.91999793  0.68592552     1.93200
Cr2111     Cr  0.63786686  0.94350750  0.65493215     1.39100
O2112       O  0.64828241  0.91895448  0.66489718    -1.23800
C2113       C  0.83142289  0.68040268  0.76082384    -0.27000
C2114       C  0.81540919  0.66487621  0.76291574    -0.15100
C2115       C  0.80499942  0.65790504  0.74371119     0.35500
C2116       C  0.81332142  0.66354748  0.72349555    -0.26500
C2117       C  0.82993718  0.67848062  0.72138697    -0.15700
C2118       C  0.83765083  0.68829986  0.74063054     0.36600
N2119       N  0.85131837  0.70668736  0.74060613    -0.90000
H2120       H  0.83865219  0.68713468  0.77511227     0.17700
H2121       H  0.80601099  0.65689622  0.70921283     0.17700
N2122       N  0.78545625  0.64591438  0.74385193    -0.89000
H2123       H  0.84419623  0.71886906  0.73165709     0.35100
H2124       H  0.86605005  0.70272227  0.73421707     0.40200
H2125       H  0.77396125  0.65442447  0.75242934     0.39800
H2126       H  0.78784373  0.63109951  0.75092954     0.34700
C2127       C  0.74859640  0.67595842  0.85185419    -0.27000
C2128       C  0.74790507  0.65983025  0.83641572    -0.15100
C2129       C  0.72724867  0.65350825  0.82848107     0.35500
C2130       C  0.70845871  0.66216603  0.83712566    -0.26500
C2131       C  0.70909234  0.67721093  0.85360153    -0.15700
C2132       C  0.72977226  0.68469856  0.86044464     0.36600
N2133       N  0.73251275  0.70128412  0.87605382    -0.90000
H2134       H  0.76392618  0.68145371  0.85785059     0.17700
H2135       H  0.69314613  0.65649626  0.83124855     0.17700
N2136       N  0.72449313  0.63843885  0.81139843    -0.89000
H2137       H  0.72741337  0.69583807  0.89103889     0.35100
H2138       H  0.72374911  0.71468952  0.87132293     0.40200
H2139       H  0.72903890  0.62322395  0.81656072     0.39800
H2140       H  0.73366113  0.64329809  0.79824500     0.34700
C2141       C  0.61763882  0.84770573  0.74634999    -0.27000
C2142       C  0.61670402  0.86089113  0.76484289    -0.15100
C2143       C  0.62250406  0.88266601  0.76220369     0.35500
C2144       C  0.62949071  0.89023965  0.74216647    -0.26500
C2145       C  0.63063318  0.87713445  0.72369414    -0.15700
C2146       C  0.62424292  0.85553202  0.72605210     0.36600
N2147       N  0.62444581  0.84106635  0.70830765    -0.90000
H2148       H  0.61290624  0.83106211  0.74751093     0.17700
H2149       H  0.63397703  0.90695227  0.74115928     0.17700
N2150       N  0.62132344  0.89777726  0.77938958    -0.89000
H2151       H  0.63995694  0.84055496  0.70212327     0.35100
H2152       H  0.61417787  0.84696895  0.69648699     0.40200
H2153       H  0.63105462  0.89255827  0.79196572     0.39800
H2154       H  0.60548053  0.89876995  0.78458645     0.34700
C2155       C  0.63525680  0.78590587  0.84843194    -0.27000
C2156       C  0.61785418  0.78536326  0.83417372    -0.15100
C2157       C  0.61084052  0.76468600  0.82676406     0.35500
C2158       C  0.61998377  0.74601539  0.83474677    -0.26500
C2159       C  0.63664193  0.74654003  0.84947792    -0.15700
C2160       C  0.64481610  0.76676203  0.85592697     0.36600
N2161       N  0.66229647  0.76799706  0.87071106    -0.90000
H2162       H  0.64118657  0.80115388  0.85418317     0.17700
H2163       H  0.61380434  0.73073004  0.82929626     0.17700
N2164       N  0.59450542  0.76159196  0.81090721    -0.89000
H2165       H  0.65726577  0.77654688  0.88416561     0.35100
H2166       H  0.67462061  0.77667627  0.86340569     0.40200
H2167       H  0.59837622  0.77019885  0.79705314     0.39800
H2168       H  0.57968766  0.76611508  0.81701559     0.34700
C2169       C  0.80410256  0.76981726  0.64136310    -0.27000
C2170       C  0.81825346  0.78640788  0.63494780    -0.15100
C2171       C  0.84005908  0.78098934  0.63208062     0.35500
C2172       C  0.84705845  0.76018377  0.63631146    -0.26500
C2173       C  0.83326122  0.74382303  0.64359059    -0.15700
C2174       C  0.81135826  0.74881701  0.64583384     0.36600
N2175       N  0.79629719  0.73322403  0.65332047    -0.90000
H2176       H  0.78724319  0.77322092  0.64319808     0.17700
H2177       H  0.86395956  0.75700336  0.63448921     0.17700
N2178       N  0.85569092  0.79603258  0.62453619    -0.89000
H2179       H  0.80125081  0.72786630  0.66840873     0.35100
H2180       H  0.79647805  0.72027616  0.64274813     0.40200
H2181       H  0.85681860  0.80867768  0.63541005     0.39800
H2182       H  0.85102466  0.80174624  0.60949240     0.34700
C2183       C  0.74529330  0.87735878  0.64940396    -0.27000
C2184       C  0.74547193  0.85831496  0.63760535    -0.15100
C2185       C  0.72570255  0.84725940  0.63478132     0.35500
C2186       C  0.70637798  0.85611959  0.64205861    -0.26500
C2187       C  0.70605302  0.87554159  0.65307851    -0.15700
C2188       C  0.72588619  0.88594199  0.65721394     0.36600
N2189       N  0.72635985  0.90587308  0.66842706    -0.90000
H2190       H  0.76006352  0.88616824  0.65172452     0.17700
H2191       H  0.69152243  0.84762254  0.63915446     0.17700
N2192       N  0.72510665  0.82684348  0.62438296    -0.89000
H2193       H  0.73360146  0.91717635  0.65840445     0.35100
H2194       H  0.73605069  0.90403330  0.68196359     0.40200
H2195       H  0.71504720  0.82800139  0.61103508     0.39800
H2196       H  0.71841643  0.81574278  0.63501569     0.34700
C2197       C  0.65017419  0.58141090  0.88671549    -0.27000
C2198       C  0.65338823  0.57283605  0.90749199    -0.15100
C2199       C  0.65093350  0.58688206  0.92501925     0.35500
C2200       C  0.64623467  0.60880271  0.92148215    -0.26500
C2201       C  0.64428076  0.61752163  0.90062147    -0.15700
C2202       C  0.64589625  0.60329893  0.88316587     0.36600
N2203       N  0.64341341  0.61095346  0.86165730    -0.90000
H2204       H  0.65178793  0.57118993  0.87281087     0.17700
H2205       H  0.64503768  0.61925352  0.93525520     0.17700
N2206       N  0.65412694  0.57929282  0.94643745    -0.89000
H2207       H  0.63085493  0.60247141  0.85452161     0.35100
H2208       H  0.65741611  0.60751561  0.85322579     0.40200
H2209       H  0.64020952  0.58229889  0.95516720     0.39800
H2210       H  0.66656434  0.58816954  0.95330495     0.34700
C2211       C  0.72175619  0.55447275  0.83632382    -0.27000
C2212       C  0.72007518  0.56089421  0.85779987    -0.15100
C2213       C  0.72942712  0.58019255  0.86449068     0.35500
C2214       C  0.74448076  0.58983854  0.85131974    -0.26500
C2215       C  0.74993630  0.58023660  0.83184881    -0.15700
C2216       C  0.73734351  0.56366445  0.82332071     0.36600
N2217       N  0.74151995  0.55455151  0.80269962    -0.90000
H2218       H  0.71319713  0.54054967  0.83060356     0.17700
H2219       H  0.75342858  0.60351326  0.85723540     0.17700
N2220       N  0.72510180  0.58881409  0.88530983    -0.89000
H2221       H  0.75724621  0.54896512  0.80247471     0.35100
H2222       H  0.74005864  0.56662566  0.79118621     0.40200
H2223       H  0.71940555  0.60438748  0.88329733     0.39800
H2224       H  0.73950129  0.58969902  0.89380442     0.34700
C2225       C  0.54672275  0.70431046  0.92590917    -0.27000
C2226       C  0.53112842  0.69186807  0.91551951    -0.15100
C2227       C  0.53818492  0.67843465  0.89858685     0.35500
C2228       C  0.56033375  0.67714104  0.89318263    -0.26500
C2229       C  0.57593016  0.68946777  0.90395962    -0.15700
C2230       C  0.56849535  0.70364730  0.92014556     0.36600
N2231       N  0.58295917  0.71808312  0.93062168    -0.90000
H2232       H  0.54192285  0.71552435  0.93820715     0.17700
H2233       H  0.56531020  0.66623271  0.88069919     0.17700
N2234       N  0.52297078  0.66596676  0.88681349    -0.89000
H2235       H  0.58242297  0.71504611  0.94710146     0.35100
H2236       H  0.57751924  0.73366630  0.92805072     0.40200
H2237       H  0.52724399  0.64987876  0.88820648     0.39800
H2238       H  0.52413090  0.67028270  0.87065329     0.34700
C2239       C  0.54773292  0.76304595  0.87023411    -0.27000
C2240       C  0.53056287  0.75007962  0.86446724    -0.15100
C2241       C  0.52289106  0.75007391  0.84319298     0.35500
C2242       C  0.52947649  0.76643952  0.82929179    -0.26500
C2243       C  0.54337812  0.78222516  0.83685263    -0.15700
C2244       C  0.55412150  0.77941775  0.85655135     0.36600
N2245       N  0.57023026  0.79423795  0.86344040    -0.90000
H2246       H  0.55393187  0.76259471  0.88647567     0.17700
H2247       H  0.52190420  0.76829522  0.81376991     0.17700
N2248       N  0.50624494  0.73543761  0.83696908    -0.89000
H2249       H  0.58416119  0.78559598  0.86655279     0.35100
H2250       H  0.56526501  0.80099292  0.87790483     0.40200
H2251       H  0.51262746  0.72002718  0.83760828     0.39800
H2252       H  0.50172003  0.73812716  0.82105183     0.34700
C2253       C  0.90781898  0.58486316  0.68230880    -0.27000
C2254       C  0.89834982  0.56895724  0.66960193    -0.15100
C2255       C  0.88158750  0.57525332  0.65560295     0.35500
C2256       C  0.87514272  0.59705736  0.65429494    -0.26500
C2257       C  0.88478770  0.61297114  0.66708627    -0.15700
C2258       C  0.90113283  0.60629576  0.68154195     0.36600
N2259       N  0.91089273  0.62116679  0.69607553    -0.90000
H2260       H  0.92006392  0.58054411  0.69381847     0.17700
H2261       H  0.86278777  0.60153865  0.64299156     0.17700
N2262       N  0.87114281  0.55961977  0.64249572    -0.89000
H2263       H  0.90852291  0.61557927  0.71169407     0.35100
H2264       H  0.92734300  0.62141950  0.69314073     0.40200
H2265       H  0.87292991  0.56423292  0.62647703     0.39800
H2266       H  0.85483888  0.55982009  0.64614202     0.34700
C2267       C  0.82835234  0.55075120  0.73922951    -0.27000
C2268       C  0.84548868  0.56197507  0.73012231    -0.15100
C2269       C  0.84717372  0.58421385  0.73234849     0.35500
C2270       C  0.83341676  0.59442943  0.74646052    -0.26500
C2271       C  0.81880049  0.58229548  0.75856288    -0.15700
C2272       C  0.81513318  0.56072905  0.75390298     0.36600
N2273       N  0.79900596  0.54873244  0.76502293    -0.90000
H2274       H  0.82689173  0.53367284  0.73697556     0.17700
H2275       H  0.83574361  0.61131860  0.74968846     0.17700
N2276       N  0.86373059  0.59624956  0.72200246    -0.89000
H2277       H  0.80642178  0.53605715  0.77302429     0.35100
H2278       H  0.78858007  0.54225369  0.75362231     0.40200
H2279       H  0.86209593  0.59403474  0.70547951     0.39800
H2280       H  0.87850999  0.59004521  0.72667679     0.34700
C2281       C  0.65159275  0.91369889  0.55335076    -0.27000
C2282       C  0.65859517  0.93383658  0.54559699    -0.15100
C2283       C  0.66121669  0.95033720  0.56074961     0.35500
C2284       C  0.65692628  0.94653014  0.58274783    -0.26500
C2285       C  0.65023789  0.92628041  0.59066607    -0.15700
C2286       C  0.64746085  0.90976382  0.57531050     0.36600
N2287       N  0.64096657  0.88863081  0.58139352    -0.90000
H2288       H  0.64979184  0.90052969  0.54221745     0.17700
H2289       H  0.65935755  0.95965299  0.59378220     0.17700
N2290       N  0.66934338  0.97074725  0.55414744    -0.89000
H2291       H  0.62596870  0.88946835  0.58869403     0.35100
H2292       H  0.65207372  0.88257172  0.59233979     0.40200
H2293       H  0.68352925  0.97368227  0.56255087     0.39800
H2294       H  0.65827417  0.98239292  0.55860659     0.34700
C2295       C  0.72642900  0.88578277  0.54493781    -0.27000
C2296       C  0.72452587  0.88122633  0.52313622    -0.15100
C2297       C  0.73049684  0.86108576  0.51515015     0.35500
C2298       C  0.74082723  0.84666597  0.52877338    -0.26500
C2299       C  0.74513658  0.85241496  0.54999191    -0.15700
C2300       C  0.73656560  0.87144878  0.55851594     0.36600
N2301       N  0.73916615  0.87719936  0.58058645    -0.90000
H2302       H  0.72107568  0.90102412  0.55117738     0.17700
H2303       H  0.74759592  0.83217332  0.52216639     0.17700
N2304       N  0.72787853  0.85609201  0.49289167    -0.89000
H2305       H  0.75544534  0.87822036  0.58421095     0.35100
H2306       H  0.73220566  0.86516540  0.58992040     0.40200
H2307       H  0.71875322  0.84209315  0.49176702     0.39800
H2308       H  0.74295353  0.85301722  0.48639816     0.34700
C2309       C  0.54445209  0.94696001  0.66051657    -0.27000
C2310       C  0.53056450  0.92966357  0.66418599    -0.15100
C2311       C  0.53900111  0.90857738  0.66190162     0.35500
C2312       C  0.56101040  0.90549524  0.65792819    -0.26500
C2313       C  0.57503471  0.92277848  0.65520272    -0.15700
C2314       C  0.56637086  0.94375138  0.65598721     0.36600
N2315       N  0.57996933  0.96203327  0.65327973    -0.90000
H2316       H  0.53855438  0.96313817  0.66216093     0.17700
H2317       H  0.56727552  0.88939736  0.65701973     0.17700
N2318       N  0.52527106  0.89016982  0.66395199    -0.89000
H2319       H  0.57908262  0.97130191  0.66718327     0.35100
H2320       H  0.57402397  0.97110645  0.64052055     0.40200
H2321       H  0.53392640  0.87600247  0.66229783     0.39800
H2322       H  0.51437450  0.89059863  0.65123833     0.34700
C2323       C  0.49715445  0.86627427  0.74721732    -0.27000
C2324       C  0.50823906  0.88312570  0.73744147    -0.15100
C2325       C  0.53066509  0.88460571  0.73870116     0.35500
C2326       C  0.54136024  0.87012927  0.75170173    -0.26500
C2327       C  0.52997123  0.85477523  0.76357276    -0.15700
C2328       C  0.50777832  0.85218414  0.76060908     0.36600
N2329       N  0.49561908  0.83579920  0.77117942    -0.90000
H2330       H  0.47990336  0.86506673  0.74576302     0.17700
H2331       H  0.55850208  0.87192561  0.75370181     0.17700
N2332       N  0.54288441  0.90082740  0.72773070    -0.89000
H2333       H  0.49563516  0.83858956  0.78767276     0.35100
H2334       H  0.50276318  0.82103474  0.76811910     0.40200
H2335       H  0.53322002  0.91036324  0.71802054     0.39800
H2336       H  0.55338302  0.89305341  0.71733253     0.34700
C2337       C  0.87492202  0.68587566  0.55471603    -0.27000
C2338       C  0.89666293  0.68724198  0.54856151    -0.15100
C2339       C  0.91211982  0.68384428  0.56470030     0.35500
C2340       C  0.90580394  0.67909711  0.58602045    -0.26500
C2341       C  0.88410073  0.67837926  0.59236224    -0.15700
C2342       C  0.86852031  0.68197852  0.57626606     0.36600
N2343       N  0.84623064  0.68205269  0.58179222    -0.90000
H2344       H  0.86269683  0.68866952  0.54274740     0.17700
H2345       H  0.91819293  0.67675635  0.59793126     0.17700
N2346       N  0.93438069  0.68530849  0.55962783    -0.89000
H2347       H  0.84210132  0.66655673  0.58661168     0.35100
H2348       H  0.83685918  0.68555962  0.56836001     0.40200
H2349       H  0.94150183  0.67072925  0.56358875     0.39800
H2350       H  0.94118032  0.69716118  0.56931171     0.34700
C2351       C  0.82831170  0.76069442  0.52724673    -0.27000
C2352       C  0.84530906  0.75322372  0.53981278    -0.15100
C2353       C  0.84556994  0.75643476  0.56198650     0.35500
C2354       C  0.82985999  0.76944249  0.57096212    -0.26500
C2355       C  0.81482103  0.77963143  0.55772141    -0.15700
C2356       C  0.81317217  0.77427106  0.53602828     0.36600
N2357       N  0.79693299  0.78348994  0.52274353    -0.90000
H2358       H  0.82800598  0.75777552  0.51013088     0.17700
H2359       H  0.83072485  0.77338975  0.58782571     0.17700
N2360       N  0.86274522  0.74819177  0.57477353    -0.89000
H2361       H  0.78805956  0.77101379  0.51595299     0.35100
H2362       H  0.80443189  0.79185557  0.51029533     0.40200
H2363       H  0.86155953  0.73151555  0.57440552     0.39800
H2364       H  0.86088796  0.75275606  0.59077256     0.34700
C2365       C  0.14265708  0.37843381  0.26445632    -0.27000
C2366       C  0.12637195  0.36293781  0.26366276    -0.15100
C2367       C  0.11964345  0.35576340  0.24296180     0.35500
C2368       C  0.12805663  0.36489361  0.22420752    -0.26500
C2369       C  0.14394100  0.38059502  0.22487540    -0.15700
C2370       C  0.15169203  0.38703834  0.24548329     0.36600
N2371       N  0.16837457  0.40260780  0.24785207    -0.90000
H2372       H  0.14816698  0.38422045  0.27986982     0.17700
H2373       H  0.12211781  0.35936383  0.20884563     0.17700
N2374       N  0.10413100  0.33897681  0.24062578    -0.89000
H2375       H  0.16376866  0.41673819  0.24025598     0.35100
H2376       H  0.18223118  0.39679097  0.24062340     0.40200
H2377       H  0.11103019  0.32661340  0.23178159     0.39800
H2378       H  0.09117320  0.34495478  0.23190009     0.34700
C2379       C  0.11771864  0.27104148  0.32360159    -0.27000
C2380       C  0.12417845  0.28964990  0.33481431    -0.15100
C2381       C  0.13753434  0.28697664  0.35281729     0.35500
C2382       C  0.14434033  0.26629887  0.35890389    -0.26500
C2383       C  0.13742309  0.24768378  0.34804481    -0.15700
C2384       C  0.12363371  0.25031986  0.33029875     0.36600
N2385       N  0.11563931  0.23234773  0.31853306    -0.90000
H2386       H  0.10730392  0.27250067  0.30979159     0.17700
H2387       H  0.15483553  0.26479753  0.37264479     0.17700
N2388       N  0.14448109  0.30517140  0.36489359    -0.89000
H2389       H  0.10656403  0.22282664  0.32890842     0.35100
H2390       H  0.12863738  0.22342911  0.31308987     0.40200
H2391       H  0.16119028  0.30547344  0.36479810     0.39800
H2392       H  0.13946045  0.30308041  0.38074589     0.34700
C2393       C  0.35515636  0.17544962  0.24221820    -0.27000
C2394       C  0.34343775  0.17452886  0.22277708    -0.15100
C2395       C  0.32236530  0.16628631  0.22386453     0.35500
C2396       C  0.31405412  0.15891102  0.24370400    -0.26500
C2397       C  0.32613474  0.15946216  0.26300042    -0.15700
C2398       C  0.34700501  0.16821844  0.26185185     0.36600
N2399       N  0.36068166  0.16991893  0.28021222    -0.90000
H2400       H  0.37132286  0.18171806  0.24239358     0.17700
H2401       H  0.29799294  0.15237824  0.24387154     0.17700
N2402       N  0.30895225  0.16529389  0.20529238    -0.89000
H2403       H  0.36384230  0.15460630  0.28612781     0.35100
H2404       H  0.35302657  0.17905194  0.29190926     0.40200
H2405       H  0.31634824  0.15561928  0.19387321     0.39800
H2406       H  0.30745743  0.18073739  0.19903193     0.34700
C2407       C  0.23121971  0.15060422  0.32616900    -0.27000
C2408       C  0.25120541  0.15917521  0.33307702    -0.15100
C2409       C  0.25060032  0.17706340  0.34679401     0.35500
C2410       C  0.23076473  0.18518826  0.35364681    -0.26500
C2411       C  0.21086562  0.17591945  0.34756486    -0.15700
C2412       C  0.21142723  0.15855576  0.33322957     0.36600
N2413       N  0.19231286  0.14807899  0.32610309    -0.90000
H2414       H  0.23073692  0.13698963  0.31546780     0.17700
H2415       H  0.23107119  0.19871846  0.36446737     0.17700
N2416       N  0.26971760  0.18714117  0.35444211    -0.89000
H2417       H  0.18277622  0.15928777  0.31819101     0.35100
H2418       H  0.18408499  0.14229112  0.33950424     0.40200
H2419       H  0.27861622  0.19233953  0.34123637     0.39800
H2420       H  0.27860106  0.17587196  0.36301406     0.34700
C2421       C  0.31944095  0.27304937  0.13558805    -0.27000
C2422       C  0.33199577  0.29139334  0.14030553    -0.15100
C2423       C  0.35219617  0.28796584  0.15000552     0.35500
C2424       C  0.35863323  0.26707556  0.15557561    -0.26500
C2425       C  0.34610378  0.24886796  0.15076160    -0.15700
C2426       C  0.32640064  0.25209401  0.14024948     0.36600
N2427       N  0.31289421  0.23446676  0.13451775    -0.90000
H2428       H  0.30414210  0.27489260  0.12766242     0.17700
H2429       H  0.37385392  0.26504328  0.16360033     0.17700
N2430       N  0.36654232  0.30526279  0.15458183    -0.89000
H2431       H  0.30943590  0.22571190  0.14839128     0.35100
H2432       H  0.32129057  0.22463055  0.12396765     0.40200
H2433       H  0.35866660  0.31630908  0.16429912     0.39800
H2434       H  0.37080019  0.31263448  0.14014570     0.34700
C2435       C  0.23932863  0.35199575  0.14305258    -0.27000
C2436       C  0.25841300  0.36432839  0.14382618    -0.15100
C2437       C  0.25699242  0.38533339  0.15152306     0.35500
C2438       C  0.23695171  0.39368016  0.15763104    -0.26500
C2439       C  0.21759472  0.38171961  0.15599802    -0.15700
C2440       C  0.21913229  0.36033846  0.14906603     0.36600
N2441       N  0.20028022  0.34721214  0.14778826    -0.90000
H2442       H  0.24008158  0.33577717  0.13702657     0.17700
H2443       H  0.23661284  0.41012253  0.16304075     0.17700
N2444       N  0.27558978  0.39875403  0.15195285    -0.89000
H2445       H  0.20404793  0.33202872  0.14194868     0.35100
H2446       H  0.19463434  0.34498928  0.16340723     0.40200
H2447       H  0.27773718  0.40415487  0.16766194     0.39800
H2448       H  0.27266476  0.41206598  0.14222177     0.34700
C2449       C  0.04256636  0.18666479  0.39251539    -0.27000
C2450       C  0.03578089  0.19403314  0.41281429    -0.15100
C2451       C  0.05162253  0.19709501  0.42870406     0.35500
C2452       C  0.07334942  0.19421862  0.42365679    -0.26500
C2453       C  0.08031034  0.18822664  0.40292484    -0.15700
C2454       C  0.06432444  0.18363792  0.38747447     0.36600
N2455       N  0.06953477  0.17652460  0.36632740    -0.90000
H2456       H  0.03081041  0.18405121  0.38000500     0.17700
H2457       H  0.08497134  0.19737889  0.43615697     0.17700
N2458       N  0.04640374  0.20433365  0.44978848    -0.89000
H2459       H  0.07788056  0.16212744  0.36753861     0.35100
H2460       H  0.07928766  0.18802493  0.35902281     0.40200
H2461       H  0.03554846  0.19355532  0.45661300     0.39800
H2462       H  0.03925864  0.21931162  0.44848896     0.34700
C2463       C  0.03455362  0.26603600  0.36217066    -0.27000
C2464       C  0.01238996  0.26799712  0.36227636    -0.15100
C2465       C  0.00193072  0.28117807  0.34733563     0.35500
C2466       C  0.01423127  0.29364114  0.33338170    -0.26500
C2467       C  0.03661066  0.29278748  0.33407391    -0.15700
C2468       C  0.04682876  0.27809868  0.34805011     0.36600
N2469       N  0.06955622  0.27577604  0.34910974    -0.90000
H2470       H  0.04238430  0.25559953  0.37362559     0.17700
H2471       H  0.00637236  0.30468991  0.32256203     0.17700
N2472       N  0.97900924  0.28283204  0.34736852    -0.89000
H2473       H  0.07647764  0.29052267  0.35296175     0.35100
H2474       H  0.07492435  0.27072519  0.33411936     0.40200
H2475       H  0.97284717  0.26800558  0.34266250     0.39800
H2476       H  0.97391260  0.29389319  0.33587558     0.34700
C2477       C  0.41379773  0.10925989  0.16188036    -0.27000
C2478       C  0.39284703  0.11762043  0.16008114    -0.15100
C2479       C  0.37564689  0.10318863  0.16244121     0.35500
C2480       C  0.37949507  0.08134732  0.16666422    -0.26500
C2481       C  0.40035878  0.07300149  0.16915883    -0.15700
C2482       C  0.41764454  0.08735939  0.16658270     0.36600
N2483       N  0.43909882  0.08008195  0.16960380    -0.90000
H2484       H  0.42738974  0.11995127  0.16040017     0.17700
H2485       H  0.36576137  0.07090522  0.16856860     0.17700
N2486       N  0.35408967  0.11056536  0.16061505    -0.89000
H2487       H  0.44595037  0.08895948  0.18205091     0.35100
H2488       H  0.44767020  0.08334819  0.15559064     0.40200
H2489       H  0.34618332  0.10704573  0.17496029     0.39800
H2490       H  0.34661770  0.10197741  0.14832567     0.34700
C2491       C  0.33868284  0.03349222  0.25864673    -0.27000
C2492       C  0.34940225  0.04443933  0.24235763    -0.15100
C2493       C  0.34363548  0.06514767  0.23645608     0.35500
C2494       C  0.32869419  0.07588338  0.24884346    -0.26500
C2495       C  0.31971116  0.06590945  0.26696125    -0.15700
C2496       C  0.32343985  0.04399850  0.27095197     0.36600
N2497       N  0.31249259  0.03284832  0.28791084    -0.90000
H2498       H  0.34275429  0.01700755  0.26216827     0.17700
H2499       H  0.32542566  0.09250541  0.24519181     0.17700
N2500       N  0.35355764  0.07547365  0.21849954    -0.89000
H2501       H  0.31739643  0.01689546  0.28869065     0.35100
H2502       H  0.29623205  0.03258714  0.28402614     0.40200
H2503       H  0.36088329  0.08950158  0.22390482     0.39800
H2504       H  0.34154500  0.07977554  0.20767788     0.34700
C2505       C  0.16095640  0.45052104  0.06254178    -0.27000
C2506       C  0.15899396  0.43392070  0.04750801    -0.15100
C2507       C  0.15377018  0.41318875  0.05549641     0.35500
C2508       C  0.15086549  0.40965348  0.07783407    -0.26500
C2509       C  0.15269766  0.42643131  0.09271809    -0.15700
C2510       C  0.15789554  0.44704423  0.08469267     0.36600
N2511       N  0.16098634  0.46455702  0.09915204    -0.90000
H2512       H  0.16540234  0.46641317  0.05716191     0.17700
H2513       H  0.14700770  0.39371159  0.08350150     0.17700
N2514       N  0.15188545  0.39544360  0.04113234    -0.89000
H2515       H  0.15041601  0.47673796  0.09484159     0.35100
H2516       H  0.17658078  0.47032504  0.09720251     0.40200
H2517       H  0.13654527  0.38896040  0.04279629     0.39800
H2518       H  0.16286612  0.38379049  0.04587989     0.34700
C2519       C  0.23313098  0.39387225  0.06085538    -0.27000
C2520       C  0.22230955  0.38414542  0.04394432    -0.15100
C2521       C  0.22521287  0.36235637  0.03939994     0.35500
C2522       C  0.24164559  0.35136630  0.04980119    -0.26500
C2523       C  0.25504521  0.36231846  0.06402555    -0.15700
C2524       C  0.24975147  0.38322215  0.07087995     0.36600
N2525       N  0.26154731  0.39441822  0.08709914    -0.90000
H2526       H  0.23059053  0.41066575  0.06433571     0.17700
H2527       H  0.24541716  0.33513888  0.04509414     0.17700
N2528       N  0.21318410  0.35240631  0.02246992    -0.89000
H2529       H  0.27712070  0.39718626  0.08183819     0.35100
H2530       H  0.26190580  0.38499866  0.10091645     0.40200
H2531       H  0.19713175  0.35232448  0.02710602     0.39800
H2532       H  0.21767983  0.33642053  0.02070454     0.34700
C2533       C  0.15561747  0.09064953  0.42764772    -0.27000
C2534       C  0.15283313  0.07440302  0.41233325    -0.15100
C2535       C  0.14605169  0.08072374  0.39147118     0.35500
C2536       C  0.14350883  0.10269446  0.38619983    -0.26500
C2537       C  0.14680933  0.11887835  0.40148136    -0.15700
C2538       C  0.15248313  0.11246211  0.42257021     0.36600
N2539       N  0.15599455  0.12819432  0.43887586    -0.90000
H2540       H  0.16083486  0.08650131  0.44368754     0.17700
H2541       H  0.13876492  0.10706539  0.37007348     0.17700
N2542       N  0.14210619  0.06495801  0.37531384    -0.89000
H2543       H  0.17168576  0.12665588  0.44444560     0.35100
H2544       H  0.14565433  0.12486318  0.45161809     0.40200
H2545       H  0.15211908  0.06821731  0.36230254     0.39800
H2546       H  0.12629875  0.06659368  0.37013021     0.34700
C2547       C  0.23271024  0.07803854  0.33150433    -0.27000
C2548       C  0.25061680  0.08759945  0.34097559    -0.15100
C2549       C  0.24905531  0.09638341  0.36172073     0.35500
C2550       C  0.23152127  0.09112822  0.37436901    -0.26500
C2551       C  0.21610749  0.07712767  0.36635394    -0.15700
C2552       C  0.21491301  0.07315868  0.34420619     0.36600
N2553       N  0.19708780  0.06146357  0.33555906    -0.90000
H2554       H  0.23337108  0.07262049  0.31503003     0.17700
H2555       H  0.23177115  0.09506591  0.39129324     0.17700
N2556       N  0.26580964  0.10945986  0.37038285    -0.89000
H2557       H  0.19903070  0.05923641  0.31906817     0.35100
H2558       H  0.18355935  0.07102515  0.33741508     0.40200
H2559       H  0.27140210  0.10218359  0.38439956     0.39800
H2560       H  0.25924732  0.12422592  0.37456048     0.34700
C2561       C  0.05382035  0.45278288  0.17939813    -0.27000
C2562       C  0.03827995  0.44157363  0.16762858    -0.15100
C2563       C  0.04562631  0.42489224  0.15396898     0.35500
C2564       C  0.06798070  0.42011048  0.15251921    -0.26500
C2565       C  0.08345058  0.43143936  0.16456081    -0.15700
C2566       C  0.07575123  0.44781032  0.17833536     0.36600
N2567       N  0.09012631  0.45929267  0.19205406    -0.90000
H2568       H  0.04888370  0.46514595  0.19046927     0.17700
H2569       H  0.07331734  0.40769767  0.14171752     0.17700
N2570       N  0.03044176  0.41280259  0.14160694    -0.89000
H2571       H  0.08904895  0.47556952  0.18835731     0.35100
H2572       H  0.08497842  0.45720116  0.20785914     0.40200
H2573       H  0.03821101  0.40113585  0.13254876     0.39800
H2574       H  0.02332886  0.42330198  0.13068664     0.34700
C2575       C  0.05428065  0.40105355  0.24243003    -0.27000
C2576       C  0.03975364  0.39276261  0.22768595    -0.15100
C2577       C  0.03574838  0.37065595  0.22693603     0.35500
C2578       C  0.04236816  0.35786746  0.24407447    -0.26500
C2579       C  0.05275362  0.36739808  0.26148796    -0.15700
C2580       C  0.06077632  0.38852319  0.25969579     0.36600
N2581       N  0.07386291  0.39769007  0.27628963    -0.90000
H2582       H  0.05774261  0.41806773  0.24239866     0.17700
H2583       H  0.03724342  0.34130823  0.24488101     0.17700
N2584       N  0.02248652  0.36187192  0.21039277    -0.89000
H2585       H  0.07750009  0.41367227  0.27285153     0.35100
H2586       H  0.08838028  0.38955169  0.27627412     0.40200
H2587       H  0.00905641  0.35491313  0.21756262     0.39800
H2588       H  0.03106861  0.34973386  0.20282346     0.34700
C2589       C  0.38764699  0.19060348  0.05431914    -0.27000
C2590       C  0.40846647  0.19589554  0.04707638    -0.15100
C2591       C  0.42474113  0.19740866  0.06287261     0.35500
C2592       C  0.41988275  0.19403960  0.08472342    -0.26500
C2593       C  0.39892996  0.18944901  0.09205318    -0.15700
C2594       C  0.38273350  0.18754256  0.07623653     0.36600
N2595       N  0.36096316  0.18314763  0.08180802    -0.90000
H2596       H  0.37465068  0.18955141  0.04287440     0.17700
H2597       H  0.43283835  0.19545152  0.09617910     0.17700
N2598       N  0.44639474  0.20258351  0.05745439    -0.89000
H2599       H  0.35566970  0.19504950  0.09226087     0.35100
H2600       H  0.36023400  0.16832231  0.08953863     0.40200
H2601       H  0.44690046  0.21798062  0.05093213     0.39800
H2602       H  0.45179738  0.19158789  0.04610113     0.34700
C2603       C  0.35492176  0.26362273  0.05442628    -0.27000
C2604       C  0.35459997  0.26579164  0.03216759    -0.15100
C2605       C  0.33918460  0.27873310  0.02207748     0.35500
C2606       C  0.32540930  0.29074051  0.03451285    -0.26500
C2607       C  0.32713951  0.29043459  0.05681865    -0.15700
C2608       C  0.34142091  0.27618320  0.06696935     0.36600
N2609       N  0.34349310  0.27564243  0.08981861    -0.90000
H2610       H  0.36681914  0.25362513  0.06209437     0.17700
H2611       H  0.31424791  0.30139822  0.02661806     0.17700
N2612       N  0.33813841  0.28048721  0.99917831    -0.89000
H2613       H  0.35921306  0.27980501  0.09378798     0.35100
H2614       H  0.34086422  0.25990307  0.09488170     0.40200
H2615       H  0.34105658  0.29643743  0.99499714     0.39800
H2616       H  0.32254480  0.27676634  0.99442992     0.34700
C2617       C  0.14762752  0.93426349  0.38235941    -0.27000
C2618       C  0.14605223  0.92037362  0.40002019    -0.15100
C2619       C  0.14870034  0.92956913  0.42073541     0.35500
C2620       C  0.15357100  0.95168743  0.42322438    -0.26500
C2621       C  0.15590387  0.96541921  0.40547789    -0.15700
C2622       C  0.15212900  0.95641597  0.38476211     0.36600
N2623       N  0.15307789  0.96976453  0.36597738    -0.90000
H2624       H  0.14538164  0.92778241  0.36641983     0.17700
H2625       H  0.15644001  0.95790050  0.43917521     0.17700
N2626       N  0.14734014  0.91636415  0.43945798    -0.89000
H2627       H  0.14061402  0.98079597  0.36704207     0.35100
H2628       H  0.15032294  0.96082610  0.35208986     0.40200
H2629       H  0.13542597  0.92256051  0.44937715     0.39800
H2630       H  0.16190050  0.91739970  0.44764576     0.34700
C2631       C  0.41380391  0.92489287  0.16437639    -0.27000
C2632       C  0.39280085  0.91934784  0.15777314    -0.15100
C2633       C  0.37891666  0.93644355  0.15261193     0.35500
C2634       C  0.38573842  0.95804591  0.15568718    -0.26500
C2635       C  0.40639238  0.96338921  0.16345819    -0.15700
C2636       C  0.42062286  0.94630459  0.16712571     0.36600
N2637       N  0.44207625  0.95046728  0.17405118    -0.90000
H2638       H  0.42526222  0.91242183  0.16786537     0.17700
H2639       H  0.37449554  0.97080740  0.15260428     0.17700
N2640       N  0.35779796  0.93197637  0.14472241    -0.89000
H2641       H  0.45249828  0.94374367  0.16286561     0.35100
H2642       H  0.44443093  0.94272578  0.18873470     0.40200
H2643       H  0.35943164  0.92489168  0.12964734     0.39800
H2644       H  0.34938998  0.94618673  0.14226975     0.34700
C2645       C  0.35884405  0.94694204  0.23813175    -0.27000
C2646       C  0.35372908  0.96453848  0.22546666    -0.15100
C2647       C  0.33322462  0.97368461  0.22654818     0.35500
C2648       C  0.31920583  0.96714999  0.24267742    -0.26500
C2649       C  0.32558577  0.95138583  0.25709758    -0.15700
C2650       C  0.34483606  0.94023549  0.25407102     0.36600
N2651       N  0.35080584  0.92308658  0.26808914    -0.90000
H2652       H  0.37471908  0.94018256  0.23740218     0.17700
H2653       H  0.30384885  0.97490244  0.24446150     0.17700
N2654       N  0.32750030  0.99098102  0.21262876    -0.89000
H2655       H  0.35347199  0.90952682  0.25870638     0.35100
H2656       H  0.36529575  0.92719101  0.27539370     0.40200
H2657       H  0.32362595  0.00417540  0.22211277     0.39800
H2658       H  0.31374220  0.98646632  0.20422492     0.34700
C2659       C  0.24387730  0.98333950  0.31983083    -0.27000
C2660       C  0.24939610  0.96263478  0.32615875    -0.15100
C2661       C  0.24059937  0.95369078  0.34489645     0.35500
C2662       C  0.22847602  0.96642854  0.35844849    -0.26500
C2663       C  0.22523650  0.98798212  0.35356734    -0.15700
C2664       C  0.23186907  0.99623923  0.33349541     0.36600
N2665       N  0.22837788  0.01805329  0.32748361    -0.90000
H2666       H  0.25087902  0.99026279  0.30550849     0.17700
H2667       H  0.22300033  0.95990329  0.37361363     0.17700
N2668       N  0.24573548  0.93226909  0.35118710    -0.89000
H2669       H  0.23518594  0.02798209  0.33912711     0.35100
H2670       H  0.21190731  0.02066970  0.32700319     0.40200
H2671       H  0.23142455  0.92383419  0.35331381     0.39800
H2672       H  0.25363948  0.93286763  0.36595499     0.34700
C2673       C  0.24827182  0.86097661  0.34766573    -0.27000
C2674       C  0.24780417  0.87723274  0.33231334    -0.15100
C2675       C  0.22725279  0.88358061  0.32421673     0.35500
C2676       C  0.20833717  0.87542319  0.33320519    -0.26500
C2677       C  0.20881215  0.86072563  0.35000779    -0.15700
C2678       C  0.22930955  0.85257290  0.35643631     0.36600
N2679       N  0.23168128  0.83558197  0.37171755    -0.90000
H2680       H  0.26351219  0.85521520  0.35353248     0.17700
H2681       H  0.19310485  0.88128203  0.32741504     0.17700
N2682       N  0.22474001  0.89822281  0.30668865    -0.89000
H2683       H  0.22207297  0.82266228  0.36709468     0.35100
H2684       H  0.22738419  0.84092788  0.38695603     0.40200
H2685       H  0.23403939  0.89309722  0.29378152     0.39800
H2686       H  0.22923363  0.91360587  0.31142289     0.34700
C2687       C  0.34435201  0.85596549  0.23785993    -0.27000
C2688       C  0.33424474  0.86404677  0.21927586    -0.15100
C2689       C  0.31724210  0.87859600  0.22215562     0.35500
C2690       C  0.31035810  0.88392936  0.24304811    -0.26500
C2691       C  0.32050291  0.87581605  0.26162702    -0.15700
C2692       C  0.33797427  0.86197657  0.25873989     0.36600
N2693       N  0.34911478  0.85362786  0.27695576    -0.90000
H2694       H  0.35757180  0.84496042  0.23620059     0.17700
H2695       H  0.29713279  0.89491802  0.24472608     0.17700
N2696       N  0.30632541  0.88783938  0.20423888    -0.89000
H2697       H  0.36518367  0.85810985  0.27564604     0.35100
H2698       H  0.34827016  0.83693762  0.27633227     0.40200
H2699       H  0.30035573  0.87546334  0.19467541     0.39800
H2700       H  0.31735458  0.89669815  0.19527236     0.34700
C2701       C  0.11739800  0.78985884  0.33664473    -0.27000
C2702       C  0.13676335  0.79080699  0.34776455    -0.15100
C2703       C  0.14762941  0.77113613  0.35163116     0.35500
C2704       C  0.13854156  0.75131007  0.34476576    -0.26500
C2705       C  0.11901003  0.75043066  0.33359907    -0.15700
C2706       C  0.10860956  0.77040626  0.32944317     0.36600
N2707       N  0.08875942  0.77135631  0.31796877    -0.90000
H2708       H  0.10873732  0.80450653  0.33347131     0.17700
H2709       H  0.14685009  0.73650736  0.34806903     0.17700
N2710       N  0.16760723  0.77115295  0.36301247    -0.89000
H2711       H  0.09099515  0.78088608  0.30435433     0.35100
H2712       H  0.07743888  0.77879718  0.32772145     0.40200
H2713       H  0.17898884  0.77837063  0.35306677     0.39800
H2714       H  0.17286372  0.75551133  0.36560886     0.34700
C2715       C  0.11160954  0.68010658  0.24341481    -0.27000
C2716       C  0.12080997  0.67353118  0.26311638    -0.15100
C2717       C  0.13764660  0.65865144  0.26230136     0.35500
C2718       C  0.14456725  0.65073192  0.24242393    -0.26500
C2719       C  0.13486938  0.65657705  0.22266282    -0.15700
C2720       C  0.11813201  0.67164100  0.22348774     0.36600
N2721       N  0.10685757  0.67803127  0.20459975    -0.90000
H2722       H  0.09859626  0.69147928  0.24349964     0.17700
H2723       H  0.15757865  0.63935449  0.24264081     0.17700
N2724       N  0.14832130  0.65143609  0.28129121    -0.89000
H2725       H  0.10034797  0.66434103  0.19755267     0.35100
H2726       H  0.11777460  0.68493119  0.19394441     0.40200
H2727       H  0.13732724  0.64328569  0.29093290     0.39800
H2728       H  0.15407968  0.66477871  0.28960298     0.34700
C2729       C  0.32734475  0.75090873  0.14908195    -0.27000
C2730       C  0.31376189  0.75108755  0.13128880    -0.15100
C2731       C  0.30717693  0.77171899  0.12332388     0.35500
C2732       C  0.31546609  0.79078038  0.13212224    -0.26500
C2733       C  0.33008239  0.79043670  0.14900106    -0.15700
C2734       C  0.33527589  0.77006957  0.15807761     0.36600
N2735       N  0.34885708  0.76859888  0.17653976    -0.90000
H2736       H  0.33222469  0.73576104  0.15594060     0.17700
H2737       H  0.31100453  0.80597478  0.12507164     0.17700
N2738       N  0.29204618  0.77424371  0.10624793    -0.89000
H2739       H  0.36215054  0.75936708  0.17249251     0.35100
H2740       H  0.34045692  0.76061919  0.18865216     0.40200
H2741       H  0.27788673  0.76624862  0.11023475     0.39800
H2742       H  0.29841752  0.76823725  0.09203590     0.34700
C2743       C  0.20578613  0.67246020  0.13592192    -0.27000
C2744       C  0.20574306  0.65489821  0.14997152    -0.15100
C2745       C  0.22581430  0.64658730  0.15649292     0.35500
C2746       C  0.24513235  0.65586605  0.14910743    -0.26500
C2747       C  0.24523468  0.67378914  0.13548482    -0.15700
C2748       C  0.22511765  0.68201836  0.12885847     0.36600
N2749       N  0.22411106  0.69980539  0.11441448    -0.90000
H2750       H  0.19070240  0.67901403  0.13052387     0.17700
H2751       H  0.26017957  0.64895521  0.15414034     0.17700
N2752       N  0.22674242  0.62824911  0.17024597    -0.89000
H2753       H  0.21541195  0.71196417  0.12181691     0.35100
H2754       H  0.21570050  0.69497391  0.10074535     0.40200
H2755       H  0.23529273  0.63248222  0.18401896     0.39800
H2756       H  0.23529087  0.61629843  0.16234156     0.34700
C2757       C  0.31352230  0.42418340  0.06464166    -0.27000
C2758       C  0.31923885  0.41943620  0.08602062    -0.15100
C2759       C  0.32176500  0.43685673  0.10029193     0.35500
C2760       C  0.31815679  0.45804382  0.09312189    -0.26500
C2761       C  0.31149572  0.46268418  0.07192241    -0.15700
C2762       C  0.30944263  0.44526846  0.05761141     0.36600
N2763       N  0.30280961  0.44874088  0.03590282    -0.90000
H2764       H  0.31151800  0.41125141  0.05325949     0.17700
H2765       H  0.31976392  0.47093417  0.10459524     0.17700
N2766       N  0.32820265  0.43363117  0.12207967    -0.89000
H2767       H  0.28877602  0.43997689  0.03327805     0.35100
H2768       H  0.31463043  0.44270564  0.02577225     0.40200
H2769       H  0.34267172  0.42532610  0.12212691     0.39800
H2770       H  0.31662056  0.42428410  0.12975086     0.34700
C2771       C  0.31085012  0.60321621  0.09695850    -0.27000
C2772       C  0.30506051  0.61747158  0.08052366    -0.15100
C2773       C  0.29866573  0.60833828  0.06050606     0.35500
C2774       C  0.29718288  0.58589735  0.05786458    -0.26500
C2775       C  0.30178496  0.57177092  0.07467568    -0.15700
C2776       C  0.30929378  0.58068651  0.09430148     0.36600
N2777       N  0.31495839  0.56675448  0.11174291    -0.90000
H2778       H  0.31614286  0.60964634  0.11218377     0.17700
H2779       H  0.29122563  0.57956760  0.04282740     0.17700
N2780       N  0.29329263  0.62172339  0.04264159    -0.89000
H2781       H  0.31999705  0.57560191  0.12504141     0.35100
H2782       H  0.32806162  0.55769218  0.10681042     0.40200
H2783       H  0.27757576  0.61828182  0.03804288     0.39800
H2784       H  0.30334113  0.61780102  0.02987192     0.34700
C2785       C  0.21478925  0.57667354  0.13854686    -0.27000
C2786       C  0.20190103  0.56518009  0.15297838    -0.15100
C2787       C  0.20405023  0.54288986  0.15507154     0.35500
C2788       C  0.21830443  0.53229033  0.14154723    -0.26500
C2789       C  0.22990161  0.54374156  0.12610427    -0.15700
C2790       C  0.22865176  0.56607057  0.12480032     0.36600
N2791       N  0.24114638  0.57775442  0.10931710    -0.90000
H2792       H  0.21301197  0.59384291  0.13698227     0.17700
H2793       H  0.21949607  0.51500589  0.14219226     0.17700
N2794       N  0.19145894  0.53118579  0.17042188    -0.89000
H2795       H  0.23879061  0.59421167  0.11101713     0.35100
H2796       H  0.23552729  0.57374691  0.09405142     0.40200
H2797       H  0.19599876  0.53637224  0.18569436     0.39800
H2798       H  0.19495343  0.51485965  0.16970691     0.34700
C2799       C  0.23057650  0.46619203  0.15590756    -0.27000
C2800       C  0.21433967  0.45342474  0.14730696    -0.15100
C2801       C  0.21832560  0.44087214  0.12897687     0.35500
C2802       C  0.23702271  0.44425639  0.11740709    -0.26500
C2803       C  0.25050423  0.46105086  0.12319442    -0.15700
C2804       C  0.24896579  0.47003255  0.14380010     0.36600
N2805       N  0.26429423  0.48561900  0.15079261    -0.90000
H2806       H  0.22804216  0.47492271  0.17067683     0.17700
H2807       H  0.23874761  0.43674415  0.10184947     0.17700
N2808       N  0.20284475  0.42578112  0.12128364    -0.89000
H2809       H  0.27054766  0.48044877  0.16544997     0.35100
H2810       H  0.25631063  0.50001559  0.15350696     0.40200
H2811       H  0.21024050  0.41086773  0.12019232     0.39800
H2812       H  0.19843051  0.43033848  0.10577305     0.34700
C2813       C  0.08587416  0.45561609  0.31322688    -0.27000
C2814       C  0.06522020  0.46434070  0.31600983    -0.15100
C2815       C  0.04925722  0.45065672  0.32449909     0.35500
C2816       C  0.05416440  0.42890967  0.32923474    -0.26500
C2817       C  0.07473200  0.42008530  0.32572988    -0.15700
C2818       C  0.09070833  0.43411515  0.31770547     0.36600
N2819       N  0.11206435  0.42713428  0.31348930    -0.90000
H2820       H  0.09863173  0.46547865  0.30680055     0.17700
H2821       H  0.04156290  0.41865019  0.33531677     0.17700
N2822       N  0.02800306  0.45858109  0.32782218    -0.89000
H2823       H  0.11165780  0.41531862  0.30167018     0.35100
H2824       H  0.11856156  0.42089008  0.32760725     0.40200
H2825       H  0.02883474  0.47011378  0.33991144     0.39800
H2826       H  0.01799992  0.44642001  0.33355300     0.34700
C2827       C  0.04377891  0.58878733  0.30561752    -0.27000
C2828       C  0.05323236  0.57350486  0.31904150    -0.15100
C2829       C  0.06920325  0.58069860  0.33360217     0.35500
C2830       C  0.07498800  0.60280790  0.33444906    -0.26500
C2831       C  0.06531465  0.61812026  0.32096014    -0.15700
C2832       C  0.04956600  0.61046980  0.30616958     0.36600
N2833       N  0.03948078  0.62406555  0.29068391    -0.90000
H2834       H  0.03214640  0.58373844  0.29374448     0.17700
H2835       H  0.08684910  0.60811884  0.34594768     0.17700
N2836       N  0.07950722  0.56558191  0.34751049    -0.89000
H2837       H  0.05125287  0.63240251  0.28217037     0.35100
H2838       H  0.02922356  0.63466438  0.29842392     0.40200
H2839       H  0.06785773  0.55936859  0.35781660     0.39800
H2840       H  0.09083850  0.57326288  0.35716604     0.34700
C2841       C  0.12130741  0.57369955  0.26122923    -0.27000
C2842       C  0.09957250  0.57844859  0.25845949    -0.15100
C2843       C  0.09318814  0.59158185  0.24148710     0.35500
C2844       C  0.10736459  0.59509748  0.22468970    -0.26500
C2845       C  0.12764895  0.58553521  0.22497866    -0.15700
C2846       C  0.13559808  0.57678454  0.24416284     0.36600
N2847       N  0.15708435  0.56886507  0.24535063    -0.90000
H2848       H  0.12621624  0.56405916  0.27481951     0.17700
H2849       H  0.10170974  0.60335064  0.21047721     0.17700
N2850       N  0.07136278  0.59822303  0.23970176    -0.89000
H2851       H  0.15989146  0.56182352  0.26030213     0.35100
H2852       H  0.16735358  0.58205939  0.24433895     0.40200
H2853       H  0.06493975  0.59166252  0.22567733     0.39800
H2854       H  0.07122529  0.61485060  0.23806709     0.34700
C2855       C  0.11189224  0.47131217  0.24479476    -0.27000
C2856       C  0.11205326  0.49354040  0.24332592    -0.15100
C2857       C  0.12653726  0.50433396  0.22987748     0.35500
C2858       C  0.14014022  0.49230838  0.21696972    -0.26500
C2859       C  0.13921385  0.46993862  0.21751592    -0.15700
C2860       C  0.12542868  0.45931342  0.23197395     0.36600
N2861       N  0.12396796  0.43642417  0.23256558    -0.90000
H2862       H  0.10045180  0.46324096  0.25510333     0.17700
H2863       H  0.15084921  0.50033493  0.20589167     0.17700
N2864       N  0.12663049  0.52730487  0.22869062    -0.89000
H2865       H  0.10830556  0.43194557  0.22873035     0.35100
H2866       H  0.12700378  0.43141507  0.24827392     0.40200
H2867       H  0.11200061  0.53211919  0.22220972     0.39800
H2868       H  0.13844469  0.53265934  0.21809414     0.34700
C2869       C  0.03899640  0.61824807  0.16747702    -0.27000
C2870       C  0.03080937  0.59733354  0.17047868    -0.15100
C2871       C  0.04526192  0.58014372  0.16782957     0.35500
C2872       C  0.06697763  0.58421996  0.16290337    -0.26500
C2873       C  0.07530365  0.60520650  0.16081373    -0.15700
C2874       C  0.06068647  0.62234162  0.16292421     0.36600
N2875       N  0.06720810  0.64418173  0.16052576    -0.90000
H2876       H  0.02849802  0.63186425  0.16927605     0.17700
H2877       H  0.07763849  0.57069166  0.16147752     0.17700
N2878       N  0.03869945  0.55839440  0.17087603    -0.89000
H2879       H  0.07459549  0.64601579  0.14560851     0.35100
H2880       H  0.07811884  0.64786743  0.17263225     0.40200
H2881       H  0.02647536  0.55493819  0.15997103     0.39800
H2882       H  0.03281889  0.55667891  0.18646342     0.34700
C2883       C  0.02550398  0.64944266  0.23869840    -0.27000
C2884       C  0.00466898  0.64523529  0.24542658    -0.15100
C2885       C  0.99555245  0.65637951  0.26250171     0.35500
C2886       C  0.00790878  0.67119983  0.27354308    -0.26500
C2887       C  0.02941420  0.67454813  0.26796268    -0.15700
C2888       C  0.03809281  0.66408886  0.24991749     0.36600
N2889       N  0.05985423  0.66741451  0.24359803    -0.90000
H2890       H  0.03222461  0.64078366  0.22526774     0.17700
H2891       H  0.00092707  0.67922158  0.28722037     0.17700
N2892       N  0.97398232  0.65210632  0.26902756    -0.89000
H2893       H  0.05998483  0.67254961  0.22763817     0.35100
H2894       H  0.06780134  0.65277261  0.24442214     0.40200
H2895       H  0.96545171  0.66642670  0.26826885     0.39800
H2896       H  0.97423255  0.64703416  0.28500773     0.34700
C2897       C  0.15903354  0.57322366  0.06311410    -0.27000
C2898       C  0.15464070  0.58895012  0.04770279    -0.15100
C2899       C  0.14580245  0.60851604  0.05512510     0.35500
C2900       C  0.14246634  0.61222702  0.07733573    -0.26500
C2901       C  0.14785351  0.59688688  0.09294245    -0.15700
C2902       C  0.15588575  0.57690930  0.08531813     0.36600
N2903       N  0.16147670  0.56022845  0.10004199    -0.90000
H2904       H  0.16614447  0.55828942  0.05805769     0.17700
H2905       H  0.13598584  0.62745075  0.08235454     0.17700
N2906       N  0.14033295  0.62493161  0.04007098    -0.89000
H2907       H  0.17766206  0.55667202  0.09796984     0.35100
H2908       H  0.15255439  0.54659944  0.09614553     0.40200
H2909       H  0.14900248  0.63871027  0.04401296     0.39800
H2910       H  0.12408106  0.62831836  0.04184239     0.34700
C2911       C  0.22066616  0.65995836  0.02462069    -0.27000
C2912       C  0.22203563  0.63856184  0.03141088    -0.15100
C2913       C  0.23122454  0.63347809  0.05132598     0.35500
C2914       C  0.24160512  0.64952694  0.06270238    -0.26500
C2915       C  0.24301318  0.67011799  0.05403533    -0.15700
C2916       C  0.23154382  0.67580752  0.03563805     0.36600
N2917       N  0.23141819  0.69725218  0.02750043    -0.90000
H2918       H  0.21268487  0.66418276  0.00980741     0.17700
H2919       H  0.25009010  0.64551289  0.07733699     0.17700
N2920       N  0.23068838  0.61206877  0.05957253    -0.89000
H2921       H  0.24710502  0.70180744  0.02391705     0.35100
H2922       H  0.22570166  0.70729319  0.03956938     0.40200
H2923       H  0.22308791  0.61237386  0.07448670     0.39800
H2924       H  0.24641758  0.60701176  0.06199004     0.34700
C2925       C  0.89789277  0.40902729  0.15809435    -0.27000
C2926       C  0.88353447  0.42617553  0.15845853    -0.15100
C2927       C  0.89198731  0.44684479  0.16303676     0.35500
C2928       C  0.91402249  0.44975968  0.16766174    -0.26500
C2929       C  0.92828501  0.43246192  0.16797763    -0.15700
C2930       C  0.91992874  0.41195676  0.16247401     0.36600
N2931       N  0.93378613  0.39382175  0.16134916    -0.90000
H2932       H  0.89200209  0.39313451  0.15440213     0.17700
H2933       H  0.91973771  0.46553609  0.17205867     0.17700
N2934       N  0.87803605  0.46490437  0.16418458    -0.89000
H2935       H  0.93272584  0.38744327  0.14589993     0.35100
H2936       H  0.92820834  0.38228471  0.17216004     0.40200
H2937       H  0.88351385  0.47644240  0.15332932     0.39800
H2938       H  0.87913122  0.47133057  0.17961483     0.34700
C2939       C  0.92145708  0.18503303  0.39380948    -0.27000
C2940       C  0.92657400  0.18950998  0.41548308    -0.15100
C2941       C  0.90941310  0.18970027  0.43022604     0.35500
C2942       C  0.88823146  0.18530986  0.42333464    -0.26500
C2943       C  0.88299188  0.18151826  0.40159477    -0.15700
C2944       C  0.90015418  0.18150530  0.38674954     0.36600
N2945       N  0.89656935  0.17786023  0.36438642    -0.90000
H2946       H  0.93406805  0.18512589  0.38192633     0.17700
H2947       H  0.87557325  0.18569247  0.43516736     0.17700
N2948       N  0.91325039  0.19468973  0.45229304    -0.89000
H2949       H  0.88679421  0.19003187  0.35847119     0.35100
H2950       H  0.88863514  0.16321830  0.36262135     0.40200
H2951       H  0.90780363  0.18185885  0.46159707     0.39800
H2952       H  0.90416398  0.20812504  0.45620625     0.34700
C2953       C  0.90712603  0.28590819  0.36092672    -0.27000
C2954       C  0.91337833  0.28250624  0.33973478    -0.15100
C2955       C  0.92327829  0.26342405  0.33361452     0.35500
C2956       C  0.92987760  0.24936344  0.34975624    -0.26500
C2957       C  0.92692719  0.25492908  0.37132832    -0.15700
C2958       C  0.91417899  0.27232963  0.37693879     0.36600
N2959       N  0.91030298  0.27734377  0.39899306    -0.90000
H2960       H  0.89781584  0.29974197  0.36526447     0.17700
H2961       H  0.93972770  0.23574645  0.34567107     0.17700
N2962       N  0.92779142  0.25923876  0.31144116    -0.89000
H2963       H  0.89379049  0.27864170  0.40106190     0.35100
H2964       H  0.91704355  0.29232152  0.40218974     0.40200
H2965       H  0.91314709  0.25776170  0.30347570     0.39800
H2966       H  0.93552263  0.24453796  0.30983141     0.34700
C2967       C  0.91807470  0.37021224  0.25496985    -0.27000
C2968       C  0.92834226  0.35226235  0.26353218    -0.15100
C2969       C  0.94911861  0.34703909  0.25712269     0.35500
C2970       C  0.96030772  0.36122845  0.24385001    -0.26500
C2971       C  0.95091317  0.38060110  0.23762400    -0.15700
C2972       C  0.92925841  0.38457979  0.24199189     0.36600
N2973       N  0.91925753  0.40383924  0.23439955    -0.90000
H2974       H  0.90197378  0.37404400  0.26006505     0.17700
H2975       H  0.97695282  0.35815113  0.24028739     0.17700
N2976       N  0.95943856  0.32845167  0.26559335    -0.89000
H2977       H  0.90329526  0.40440559  0.23931120     0.35100
H2978       H  0.91907917  0.40323933  0.21764717     0.40200
H2979       H  0.97313244  0.33340711  0.27386460     0.39800
H2980       H  0.96430052  0.31902170  0.25268025     0.34700
C2981       C  0.82519554  0.37382439  0.26073830    -0.27000
C2982       C  0.84349095  0.36101023  0.25981562    -0.15100
C2983       C  0.85129465  0.35563326  0.23892754     0.35500
C2984       C  0.84098302  0.36302283  0.22014411    -0.26500
C2985       C  0.82298491  0.37618357  0.22103667    -0.15700
C2986       C  0.81509931  0.38153498  0.24188635     0.36600
N2987       N  0.79692290  0.39518445  0.24423565    -0.90000
H2988       H  0.81881196  0.37828828  0.27622644     0.17700
H2989       H  0.84770232  0.35897373  0.20468131     0.17700
N2990       N  0.87001608  0.34276613  0.23640938    -0.89000
H2991       H  0.80162306  0.40859918  0.25308427     0.35100
H2992       H  0.78528276  0.38693823  0.25301898     0.40200
H2993       H  0.88128362  0.35157355  0.22767122     0.39800
H2994       H  0.86588471  0.32923892  0.22746465     0.34700
C2995       C  0.83837720  0.26973308  0.31826740    -0.27000
C2996       C  0.84071976  0.28728335  0.33255253    -0.15100
C2997       C  0.83876532  0.28287310  0.35477603     0.35500
C2998       C  0.83424919  0.26215228  0.36185249    -0.26500
C2999       C  0.83085522  0.24478569  0.34779412    -0.15700
C3000       C  0.83339910  0.24873471  0.32560934     0.36600
N3001       N  0.83062001  0.23201140  0.31021827    -0.90000
H3002       H  0.84033503  0.27231531  0.30120789     0.17700
H3003       H  0.83273202  0.25984194  0.37900546     0.17700
N3004       N  0.84115939  0.29897487  0.37093214    -0.89000
H3005       H  0.81519823  0.22573575  0.31191226     0.35100
H3006       H  0.84158231  0.21992319  0.31371906     0.40200
H3007       H  0.82992789  0.31102266  0.36828345     0.39800
H3008       H  0.85665987  0.30523545  0.37032092     0.34700
C3009       C  0.71438085  0.17626676  0.34657686    -0.27000
C3010       C  0.71267737  0.16066024  0.33049150    -0.15100
C3011       C  0.73205991  0.15186296  0.32253886     0.35500
C3012       C  0.75216896  0.15841956  0.33080062    -0.26500
C3013       C  0.75389908  0.17437763  0.34647945    -0.15700
C3014       C  0.73454419  0.18340958  0.35426515     0.36600
N3015       N  0.73515340  0.19964718  0.37041157    -0.90000
H3016       H  0.69995773  0.18323418  0.35308560     0.17700
H3017       H  0.76657140  0.15114509  0.32459322     0.17700
N3018       N  0.73155265  0.13579762  0.30626206    -0.89000
H3019       H  0.72648548  0.19415901  0.38366276     0.35100
H3020       H  0.72745959  0.21319479  0.36437286     0.40200
H3021       H  0.73920500  0.12219729  0.31225588     0.39800
H3022       H  0.74035791  0.14138911  0.29315198     0.34700
C3023       C  0.64801144  0.15723027  0.23855877    -0.27000
C3024       C  0.63884236  0.16316109  0.25844959    -0.15100
C3025       C  0.62184402  0.17799037  0.25791252     0.35500
C3026       C  0.61405539  0.18553758  0.23795462    -0.26500
C3027       C  0.62241599  0.17827838  0.21816585    -0.15700
C3028       C  0.63994748  0.16422343  0.21879791     0.36600
N3029       N  0.65018974  0.15689475  0.19965788    -0.90000
H3030       H  0.66142090  0.14632908  0.23815723     0.17700
H3031       H  0.60069053  0.19650121  0.23792576     0.17700
N3032       N  0.61169165  0.18508578  0.27715443    -0.89000
H3033       H  0.65483153  0.17019852  0.19058302     0.35100
H3034       H  0.63931939  0.14774302  0.19082016     0.40200
H3035       H  0.62322897  0.19244407  0.28680961     0.39800
H3036       H  0.60566762  0.17170918  0.28525626     0.34700
C3037       C  0.71325194  0.38205292  0.13728045    -0.27000
C3038       C  0.71060775  0.36013137  0.13313823    -0.15100
C3039       C  0.72915828  0.34703788  0.13436459     0.35500
C3040       C  0.74938159  0.35598497  0.13991391    -0.26500
C3041       C  0.75167979  0.37789254  0.14444467    -0.15700
C3042       C  0.73326344  0.39086520  0.14286915     0.36600
N3043       N  0.73481059  0.41333322  0.14689598    -0.90000
H3044       H  0.69966536  0.39267168  0.13603849     0.17700
H3045       H  0.76315978  0.34563393  0.14125855     0.17700
N3046       N  0.72766216  0.32460735  0.13003561    -0.89000
H3047       H  0.72428836  0.41694169  0.15936563     0.35100
H3048       H  0.72970900  0.42146828  0.13316195     0.40200
H3049       H  0.73298335  0.31633934  0.14359940     0.39800
H3050       H  0.73800447  0.32111691  0.11737461     0.34700
C3051       C  0.64555337  0.26763842  0.12236659    -0.27000
C3052       C  0.63723921  0.28771016  0.12874303    -0.15100
C3053       C  0.62058914  0.28787208  0.14375428     0.35500
C3054       C  0.61248051  0.26841219  0.15175787    -0.26500
C3055       C  0.62034995  0.24821744  0.14499795    -0.15700
C3056       C  0.63734056  0.24813908  0.13016357     0.36600
N3057       N  0.64627107  0.22866035  0.12224408    -0.90000
H3058       H  0.65844869  0.26696714  0.11081311     0.17700
H3059       H  0.59943949  0.26931200  0.16312304     0.17700
N3060       N  0.61126107  0.30765766  0.15038290    -0.89000
H3061       H  0.63413393  0.21980806  0.11483542     0.35100
H3062       H  0.65227975  0.21994820  0.13521744     0.40200
H3063       H  0.61260762  0.30871404  0.16705476     0.39800
H3064       H  0.59500074  0.30724434  0.14649131     0.34700
C3065       C  0.41109876  0.07861450  0.31053469    -0.27000
C3066       C  0.42653461  0.09278620  0.31872601    -0.15100
C3067       C  0.41909117  0.11181141  0.32868693     0.35500
C3068       C  0.39675876  0.11621872  0.32965321    -0.26500
C3069       C  0.38138823  0.10215573  0.32086907    -0.15700
C3070       C  0.38906748  0.08302560  0.31129226     0.36600
N3071       N  0.37463048  0.06789202  0.30179943    -0.90000
H3072       H  0.41613522  0.06410235  0.30256755     0.17700
H3073       H  0.39137270  0.13077389  0.33727843     0.17700
N3074       N  0.43415553  0.12682622  0.33748906    -0.89000
H3075       H  0.37675196  0.05312351  0.30938250     0.35100
H3076       H  0.37865919  0.06615888  0.28562910     0.40200
H3077       H  0.44186001  0.11929514  0.35030738     0.39800
H3078       H  0.42624476  0.14005884  0.34386749     0.34700
C3079       C  0.55108827  0.08504582  0.31526632    -0.27000
C3080       C  0.53724525  0.10263867  0.31345640    -0.15100
C3081       C  0.54659316  0.12335291  0.31577046     0.35500
C3082       C  0.56882743  0.12595244  0.31932378    -0.26500
C3083       C  0.58276354  0.10845079  0.32085615    -0.15700
C3084       C  0.57348811  0.08761914  0.31886513     0.36600
N3085       N  0.58688023  0.06901320  0.31947263    -0.90000
H3086       H  0.54453766  0.06913065  0.31311713     0.17700
H3087       H  0.57524798  0.14201541  0.32067822     0.17700
N3088       N  0.53361583  0.14212244  0.31431224    -0.89000
H3089       H  0.59220645  0.06717855  0.33525396     0.35100
H3090       H  0.57803457  0.05523728  0.31593528     0.40200
H3091       H  0.53943897  0.15158588  0.30175077     0.39800
H3092       H  0.53533071  0.15074438  0.32856044     0.34700
C3093       C  0.53218739  0.14798607  0.24172335    -0.27000
C3094       C  0.51005127  0.15017854  0.24252459    -0.15100
C3095       C  0.49956309  0.16634596  0.23107476     0.35500
C3096       C  0.51145622  0.17972951  0.21785593    -0.26500
C3097       C  0.53352116  0.17689707  0.21614312    -0.15700
C3098       C  0.54413263  0.16129043  0.22848316     0.36600
N3099       N  0.56665779  0.15777594  0.22628351    -0.90000
H3100       H  0.54001318  0.13518402  0.25043382     0.17700
H3101       H  0.50336500  0.19165050  0.20819505     0.17700
N3102       N  0.47677251  0.16822748  0.23178454    -0.89000
H3103       H  0.56896807  0.14208541  0.22101752     0.35100
H3104       H  0.57366646  0.15923863  0.24143708     0.40200
H3105       H  0.47082605  0.16630725  0.21622886     0.39800
H3106       H  0.47317988  0.18372862  0.23681188     0.34700
C3107       C  0.42929263  0.16314308  0.25895945    -0.27000
C3108       C  0.42418502  0.14140084  0.25658641    -0.15100
C3109       C  0.41027734  0.13491103  0.24029110     0.35500
C3110       C  0.40577838  0.14909961  0.22374630    -0.26500
C3111       C  0.41515907  0.16954000  0.22357351    -0.15700
C3112       C  0.42494804  0.17752624  0.24222849     0.36600
N3113       N  0.43244941  0.19924958  0.24313587    -0.90000
H3114       H  0.43968619  0.16810364  0.27196569     0.17700
H3115       H  0.39673212  0.14341238  0.21003357     0.17700
N3116       N  0.40327980  0.11310937  0.23905780    -0.89000
H3117       H  0.44024581  0.20211957  0.25769146     0.35100
H3118       H  0.41901023  0.20912352  0.24297648     0.40200
H3119       H  0.40864830  0.10668078  0.22457075     0.39800
H3120       H  0.38658583  0.11311536  0.23879000     0.34700
C3121       C  0.42465290  0.35207692  0.09247422    -0.27000
C3122       C  0.43079310  0.34492996  0.07185882    -0.15100
C3123       C  0.41460034  0.34221921  0.05636906     0.35500
C3124       C  0.39289324  0.34499414  0.06222434    -0.26500
C3125       C  0.38659839  0.35066343  0.08329609    -0.15700
C3126       C  0.40296297  0.35497899  0.09833661     0.36600
N3127       N  0.39764858  0.36160051  0.11971830    -0.90000
H3128       H  0.43690235  0.35434826  0.10456081     0.17700
H3129       H  0.38072415  0.34217413  0.05018537     0.17700
N3130       N  0.42005536  0.33535991  0.03510644    -0.89000
H3131       H  0.41150110  0.36472336  0.12858739     0.35100
H3132       H  0.38999681  0.34874134  0.12726481     0.40200
H3133       H  0.42885172  0.34769069  0.02793650     0.39800
H3134       H  0.40628861  0.33333687  0.02579840     0.34700
C3135       C  0.54624683  0.34809800  0.08675370    -0.27000
C3136       C  0.53950119  0.34708040  0.06514797    -0.15100
C3137       C  0.55517353  0.35025575  0.04918780     0.35500
C3138       C  0.57689968  0.35346165  0.05492950    -0.26500
C3139       C  0.58385489  0.35320902  0.07652782    -0.15700
C3140       C  0.56803031  0.35076503  0.09258810     0.36600
N3141       N  0.57404108  0.35074694  0.11483311    -0.90000
H3142       H  0.53451941  0.34597165  0.09933613     0.17700
H3143       H  0.58851209  0.35555683  0.04222154     0.17700
N3144       N  0.54913423  0.35035981  0.02704740    -0.89000
H3145       H  0.56070058  0.34816974  0.12459732     0.35100
H3146       H  0.57982437  0.36602258  0.11849703     0.40200
H3147       H  0.55780704  0.33844700  0.01922232     0.39800
H3148       H  0.55360903  0.36511952  0.02050439     0.34700
C3149       C  0.55250372  0.26804672  0.10842120    -0.27000
C3150       C  0.53691732  0.28239907  0.11498319    -0.15100
C3151       C  0.52979015  0.28248212  0.13640083     0.35500
C3152       C  0.53493815  0.26513786  0.14962363    -0.26500
C3153       C  0.54703858  0.24837629  0.14130636    -0.15700
C3154       C  0.55750153  0.25073152  0.12142801     0.36600
N3155       N  0.57201426  0.23481604  0.11379238    -0.90000
H3156       H  0.55820072  0.26833872  0.09201700     0.17700
H3157       H  0.52776325  0.26365177  0.16536384     0.17700
N3158       N  0.51496812  0.29848124  0.14345350    -0.89000
H3159       H  0.58668106  0.24227643  0.11070971     0.35100
H3160       H  0.56613371  0.22898744  0.09923372     0.40200
H3161       H  0.52295061  0.31319848  0.14302897     0.39800
H3162       H  0.51063345  0.29579908  0.15942173     0.34700
C3163       C  0.46560877  0.25764178  0.13561073    -0.27000
C3164       C  0.45366037  0.27030188  0.12155291    -0.15100
C3165       C  0.43133033  0.27099470  0.12279013     0.35500
C3166       C  0.42105494  0.25792248  0.13773195    -0.26500
C3167       C  0.43286592  0.24389049  0.15075032    -0.15700
C3168       C  0.45532594  0.24407934  0.15005138     0.36600
N3169       N  0.46764624  0.23012286  0.16342751    -0.90000
H3170       H  0.48290654  0.25732304  0.13445292     0.17700
H3171       H  0.40374841  0.25760645  0.13811244     0.17700
N3172       N  0.41928988  0.28425455  0.10833277    -0.89000
H3173       H  0.47804206  0.23951198  0.17261575     0.35100
H3174       H  0.47690656  0.22038838  0.15351602     0.40200
H3175       H  0.42325469  0.30018105  0.11160776     0.39800
H3176       H  0.40290039  0.28264628  0.11124187     0.34700
C3177       C  0.54612381  0.19369860  0.05873959    -0.27000
C3178       C  0.56322518  0.19251430  0.04423661    -0.15100
C3179       C  0.58327286  0.18518909  0.05215141     0.35500
C3180       C  0.58620784  0.18123335  0.07430550    -0.26500
C3181       C  0.56941486  0.18345530  0.08896577    -0.15700
C3182       C  0.54899356  0.18916446  0.08082447     0.36600
N3183       N  0.53130070  0.19164650  0.09513600    -0.90000
H3184       H  0.53072949  0.19935376  0.05319602     0.17700
H3185       H  0.60177491  0.17643799  0.08017331     0.17700
N3186       N  0.60081572  0.18210086  0.03762269    -0.89000
H3187       H  0.51900945  0.18147724  0.09003189     0.35100
H3188       H  0.52586968  0.20739609  0.09391949     0.40200
H3189       H  0.61438352  0.17680907  0.04583469     0.39800
H3190       H  0.59645986  0.16986019  0.02706691     0.34700
C3191       C  0.62678491  0.28381992  0.05531445    -0.27000
C3192       C  0.64460371  0.29212097  0.04450742    -0.15100
C3193       C  0.64936781  0.28559546  0.02360509     0.35500
C3194       C  0.63521311  0.27181360  0.01309899    -0.26500
C3195       C  0.61611356  0.26551434  0.02311913    -0.15700
C3196       C  0.61220029  0.27070668  0.04464295     0.36600
N3197       N  0.59288982  0.26369925  0.05504721    -0.90000
H3198       H  0.62322867  0.28922116  0.07143203     0.17700
H3199       H  0.63810315  0.26775723  0.99646017     0.17700
N3200       N  0.66738425  0.29442123  0.01247598    -0.89000
H3201       H  0.59241079  0.26925056  0.07084004     0.35100
H3202       H  0.59329435  0.24700395  0.05591156     0.40200
H3203       H  0.66177318  0.30239003  0.99884410     0.39800
H3204       H  0.67695388  0.28175199  0.00737250     0.34700
C3205       C  0.54207501  0.08863653  0.17612690    -0.27000
C3206       C  0.55522727  0.07292441  0.16708717    -0.15100
C3207       C  0.57393150  0.08000539  0.15623891     0.35500
C3208       C  0.57860341  0.10221911  0.15421676    -0.26500
C3209       C  0.56529272  0.11791303  0.16330619    -0.15700
C3210       C  0.54700339  0.11058831  0.17480710     0.36600
N3211       N  0.53340858  0.12530570  0.18584452    -0.90000
H3212       H  0.52808843  0.08388711  0.18522809     0.17700
H3213       H  0.59277340  0.10714336  0.14552045     0.17700
N3214       N  0.58850611  0.06474730  0.14751567    -0.89000
H3215       H  0.53319106  0.12110925  0.20207693     0.35100
H3216       H  0.51789054  0.12358835  0.17983304     0.40200
H3217       H  0.60341766  0.06717382  0.15472249     0.39800
H3218       H  0.59008307  0.06781784  0.13111307     0.34700
C3219       C  0.60214265  0.09047978  0.23962038    -0.27000
C3220       C  0.60771090  0.07439754  0.22535234    -0.15100
C3221       C  0.62930238  0.06844085  0.22309907     0.35500
C3222       C  0.64407515  0.07483376  0.23888082    -0.26500
C3223       C  0.63718975  0.08758117  0.25590851    -0.15700
C3224       C  0.61684586  0.09725801  0.25493747     0.36600
N3225       N  0.61045077  0.11261206  0.27064234    -0.90000
H3226       H  0.58564392  0.09559284  0.24082791     0.17700
H3227       H  0.66002941  0.06817244  0.23908411     0.17700
N3228       N  0.63535350  0.05381752  0.20645901    -0.89000
H3229       H  0.60617769  0.12664352  0.26259572     0.35100
H3230       H  0.59677027  0.10672048  0.27825577     0.40200
H3231       H  0.65173023  0.05065175  0.20728071     0.39800
H3232       H  0.63271593  0.06148529  0.19178994     0.34700
C3233       C  0.88449210  0.57672994  0.16333740    -0.27000
C3234       C  0.87703199  0.59792025  0.16089700    -0.15100
C3235       C  0.89258098  0.61444533  0.15981150     0.35500
C3236       C  0.91452121  0.60957093  0.16176824    -0.26500
C3237       C  0.92179462  0.58850302  0.16537610    -0.15700
C3238       C  0.90638613  0.57194731  0.16567692     0.36600
N3239       N  0.91277432  0.55017611  0.16872762    -0.90000
H3240       H  0.87317984  0.56356988  0.16386734     0.17700
H3241       H  0.92589633  0.62268126  0.16165498     0.17700
N3242       N  0.88667702  0.63644306  0.15778043    -0.89000
H3243       H  0.90739797  0.54129104  0.15558626     0.35100
H3244       H  0.90513669  0.54429496  0.18244175     0.40200
H3245       H  0.87655528  0.64035828  0.17049682     0.39800
H3246       H  0.87847874  0.63846325  0.14332108     0.34700
C3247       C  0.72621100  0.64036090  0.15007303    -0.27000
C3248       C  0.74624454  0.65074064  0.14719625    -0.15100
C3249       C  0.74625936  0.67066450  0.13642594     0.35500
C3250       C  0.72683348  0.67940025  0.12904946    -0.26500
C3251       C  0.70694560  0.66883690  0.13188566    -0.15700
C3252       C  0.70693973  0.64893684  0.14245907     0.36600
N3253       N  0.68782027  0.63648793  0.14480593    -0.90000
H3254       H  0.72532256  0.62499236  0.15806122     0.17700
H3255       H  0.72736961  0.69459280  0.12067029     0.17700
N3256       N  0.76558987  0.68236022  0.13250340    -0.89000
H3257       H  0.68139178  0.63372543  0.12957517     0.35100
H3258       H  0.67685871  0.64523090  0.15383053     0.40200
H3259       H  0.77576960  0.67284749  0.12332344     0.39800
H3260       H  0.77289441  0.68567123  0.14721274     0.34700
C3261       C  0.90758297  0.68250175  0.40247809    -0.27000
C3262       C  0.88669498  0.68097513  0.39375577    -0.15100
C3263       C  0.86934910  0.68261592  0.40808155     0.35500
C3264       C  0.87317640  0.68646834  0.43015617    -0.26500
C3265       C  0.89400575  0.68929686  0.43873086    -0.15700
C3266       C  0.91138607  0.68658098  0.42447669     0.36600
N3267       N  0.93306252  0.68873104  0.43155013    -0.90000
H3268       H  0.92125429  0.68113919  0.39193044     0.17700
H3269       H  0.85951406  0.68831683  0.44062768     0.17700
N3270       N  0.84781669  0.68146522  0.40010984    -0.89000
H3271       H  0.93576859  0.67753605  0.44370877     0.35100
H3272       H  0.93522513  0.70409102  0.43777375     0.40200
H3273       H  0.84541304  0.69478438  0.39024924     0.39800
H3274       H  0.83684843  0.68274786  0.41266816     0.34700
C3275       C  0.92356627  0.67750894  0.24597159    -0.27000
C3276       C  0.90979642  0.66988924  0.26190170    -0.15100
C3277       C  0.89946046  0.64992137  0.25922529     0.35500
C3278       C  0.90521257  0.63671770  0.24228070    -0.26500
C3279       C  0.92188058  0.64268879  0.22876477    -0.15700
C3280       C  0.92993417  0.66380647  0.22932495     0.36600
N3281       N  0.94662616  0.67010785  0.21480004    -0.90000
H3282       H  0.93111310  0.69302430  0.24782588     0.17700
H3283       H  0.89901612  0.62049190  0.24179069     0.17700
N3284       N  0.88444218  0.64215438  0.27472477    -0.89000
H3285       H  0.95141694  0.68586386  0.21778945     0.35100
H3286       H  0.94019219  0.66987447  0.19932863     0.40200
H3287       H  0.89042112  0.62788811  0.28103927     0.39800
H3288       H  0.87022675  0.63845014  0.26670196     0.34700
C3289       C  0.81717234  0.65388334  0.26058647    -0.27000
C3290       C  0.83477169  0.66791293  0.26078682    -0.15100
C3291       C  0.84304943  0.67470069  0.24047162     0.35500
C3292       C  0.83452402  0.66681942  0.22121546    -0.26500
C3293       C  0.81724177  0.65270666  0.22093399    -0.15700
C3294       C  0.80818462  0.64639151  0.24097719     0.36600
N3295       N  0.79057038  0.63157318  0.24150466    -0.90000
H3296       H  0.81060371  0.64847127  0.27571847     0.17700
H3297       H  0.84157643  0.67197951  0.20619425     0.17700
N3298       N  0.86031755  0.68978567  0.23899267    -0.89000
H3299       H  0.77715777  0.63952854  0.23554176     0.35100
H3300       H  0.78689567  0.62733734  0.25730220     0.40200
H3301       H  0.85509656  0.70297720  0.23012328     0.39800
H3302       H  0.87286850  0.68261851  0.23063892     0.34700
C3303       C  0.72985058  0.85709751  0.42843032    -0.27000
C3304       C  0.74727430  0.86637561  0.41780754    -0.15100
C3305       C  0.74611640  0.88778485  0.41071696     0.35500
C3306       C  0.72983110  0.90073690  0.41832908    -0.26500
C3307       C  0.71515676  0.89242019  0.43291626    -0.15700
C3308       C  0.71339689  0.87019157  0.43596976     0.36600
N3309       N  0.69656812  0.86158059  0.44909110    -0.90000
H3310       H  0.73017761  0.84032297  0.43280148     0.17700
H3311       H  0.73058673  0.91783563  0.41542724     0.17700
N3312       N  0.76231878  0.89681345  0.39720577    -0.89000
H3313       H  0.69792908  0.84495694  0.45024734     0.35100
H3314       H  0.68213487  0.86459822  0.44120187     0.40200
H3315       H  0.76911742  0.90982312  0.40525791     0.39800
H3316       H  0.75494824  0.90262347  0.38333055     0.34700
C3317       C  0.82720444  0.80150986  0.45857446    -0.27000
C3318       C  0.81559147  0.79264085  0.44157013    -0.15100
C3319       C  0.81751453  0.77066571  0.43666095     0.35500
C3320       C  0.83275345  0.75856708  0.44765771    -0.26500
C3321       C  0.84591222  0.76832940  0.46290630    -0.15700
C3322       C  0.84259412  0.78971585  0.46901429     0.36600
N3323       N  0.85469423  0.79998429  0.48561385    -0.90000
H3324       H  0.82557319  0.81822970  0.46280961     0.17700
H3325       H  0.83499694  0.74183505  0.44376281     0.17700
N3326       N  0.80465432  0.76101334  0.42015228    -0.89000
H3327       H  0.87087764  0.79993572  0.48153075     0.35100
H3328       H  0.85246119  0.79154082  0.49988051     0.40200
H3329       H  0.78873216  0.76164183  0.42517053     0.39800
H3330       H  0.80842596  0.74483239  0.41841418     0.34700
C3331       C  0.81068716  0.76275914  0.35713774    -0.27000
C3332       C  0.82081278  0.78151976  0.34928569    -0.15100
C3333       C  0.83705275  0.77878878  0.33371857     0.35500
C3334       C  0.84238426  0.75806732  0.32642315    -0.26500
C3335       C  0.83254129  0.73934784  0.33462311    -0.15700
C3336       C  0.81645724  0.74204123  0.35029213     0.36600
N3337       N  0.80522463  0.72410912  0.35917059    -0.90000
H3338       H  0.79821808  0.76410237  0.36909424     0.17700
H3339       H  0.85476282  0.75662859  0.31440453     0.17700
N3340       N  0.84824225  0.79667666  0.32470479    -0.89000
H3341       H  0.81616379  0.71438952  0.36721207     0.35100
H3342       H  0.79842353  0.71538354  0.34659270     0.40200
H3343       H  0.85640554  0.80459514  0.33699453     0.39800
H3344       H  0.83706555  0.80709617  0.31795505     0.34700
C3345       C  0.54593455  0.94858641  0.17413597    -0.27000
C3346       C  0.56296641  0.96287350  0.17100669    -0.15100
C3347       C  0.58278250  0.95425708  0.16395343     0.35500
C3348       C  0.58517155  0.93187040  0.16092034    -0.26500
C3349       C  0.56839820  0.91738261  0.16499363    -0.15700
C3350       C  0.54835532  0.92630687  0.17154386     0.36600
N3351       N  0.52996010  0.91332813  0.17602144    -0.90000
H3352       H  0.53076312  0.95464801  0.17982275     0.17700
H3353       H  0.60047686  0.92567849  0.15580507     0.17700
N3354       N  0.60064830  0.96828220  0.16013836    -0.89000
H3355       H  0.53318980  0.90346774  0.18916842     0.35100
H3356       H  0.52633157  0.90411058  0.16252623     0.40200
H3357       H  0.59659274  0.97828431  0.14732816     0.39800
H3358       H  0.61405657  0.95960922  0.15532592     0.34700
C3359       C  0.64049982  0.78443036  0.13651192    -0.27000
C3360       C  0.62206016  0.78558155  0.14929194    -0.15100
C3361       C  0.61348066  0.76581051  0.15726907     0.35500
C3362       C  0.62183978  0.74609813  0.15075591    -0.26500
C3363       C  0.63947316  0.74485542  0.13722804    -0.15700
C3364       C  0.64938513  0.76434543  0.13067549     0.36600
N3365       N  0.66807100  0.76391283  0.11747496    -0.90000
H3366       H  0.64774393  0.79904200  0.13056959     0.17700
H3367       H  0.61429155  0.73150652  0.15641491     0.17700
N3368       N  0.59605747  0.76539783  0.17220359    -0.89000
H3369       H  0.68026564  0.77212300  0.12550265     0.35100
H3370       H  0.66471866  0.77220625  0.10330135     0.40200
H3371       H  0.60105159  0.75737408  0.18604028     0.39800
H3372       H  0.58344690  0.75671894  0.16538813     0.34700
C3373       C  0.65139036  0.91603953  0.42963946    -0.27000
C3374       C  0.65362471  0.93788704  0.43527179    -0.15100
C3375       C  0.65230882  0.95302883  0.41836098     0.35500
C3376       C  0.64929637  0.94618349  0.39700219    -0.26500
C3377       C  0.64823219  0.92432060  0.39123626    -0.15700
C3378       C  0.64941405  0.90916521  0.40809401     0.36600
N3379       N  0.64857232  0.88667555  0.40395843    -0.90000
H3380       H  0.65214989  0.90393010  0.44205017     0.17700
H3381       H  0.64834418  0.95830918  0.38460728     0.17700
N3382       N  0.65369756  0.97556254  0.42224893    -0.89000
H3383       H  0.66158633  0.88265474  0.39430401     0.35100
H3384       H  0.63445052  0.88328400  0.39563605     0.40200
H3385       H  0.66893120  0.97922272  0.42807971     0.39800
H3386       H  0.64229510  0.97964033  0.43376207     0.34700
C3387       C  0.61265026  0.96604203  0.23580193    -0.27000
C3388       C  0.61533822  0.98807831  0.23808875    -0.15100
C3389       C  0.63159605  0.99656159  0.25113502     0.35500
C3390       C  0.64368353  0.98271796  0.26346215    -0.26500
C3391       C  0.63947858  0.96071499  0.26300660    -0.15700
C3392       C  0.62463563  0.95204745  0.24831467     0.36600
N3393       N  0.62053681  0.92940538  0.24741265    -0.90000
H3394       H  0.60002815  0.95988441  0.22556344     0.17700
H3395       H  0.65540191  0.98926507  0.27449793     0.17700
N3396       N  0.63511978  0.01910802  0.25323780    -0.89000
H3397       H  0.60948989  0.92583436  0.23532784     0.35100
H3398       H  0.61337858  0.92488387  0.26187878     0.40200
H3399       H  0.62100962  0.02627108  0.25850984     0.39800
H3400       H  0.63887312  0.02515611  0.23809910     0.34700
C3401       C  0.71224897  0.85193418  0.33687525    -0.27000
C3402       C  0.71188337  0.87323301  0.33001431    -0.15100
C3403       C  0.73193423  0.88425160  0.32793170     0.35500
C3404       C  0.75111176  0.87439712  0.33406869    -0.26500
C3405       C  0.75120095  0.85372591  0.34233582    -0.15700
C3406       C  0.73151163  0.84207697  0.34288557     0.36600
N3407       N  0.73053988  0.82005167  0.34926335    -0.90000
H3408       H  0.69746803  0.84288753  0.33779064     0.17700
H3409       H  0.76585686  0.88356112  0.33361797     0.17700
N3410       N  0.73313632  0.90577978  0.32005250    -0.89000
H3411       H  0.73384399  0.81866170  0.36560199     0.35100
H3412       H  0.74190958  0.81151848  0.34052439     0.40200
H3413       H  0.74063355  0.91523068  0.33167158     0.39800
H3414       H  0.74277705  0.90588006  0.30637153     0.34700
C3415       C  0.64395578  0.88155024  0.24263175    -0.27000
C3416       C  0.63645442  0.87152428  0.26149882    -0.15100
C3417       C  0.62191138  0.85438781  0.25913231     0.35500
C3418       C  0.61586301  0.84729632  0.23832920    -0.26500
C3419       C  0.62329668  0.85750774  0.21942886    -0.15700
C3420       C  0.63721975  0.87525380  0.22201654     0.36600
N3421       N  0.64500726  0.88724065  0.20405220    -0.90000
H3422       H  0.65486570  0.89500009  0.24388532     0.17700
H3423       H  0.60480931  0.83397913  0.23701125     0.17700
N3424       N  0.61344658  0.84391883  0.27771171    -0.89000
H3425       H  0.63206017  0.89447530  0.19637264     0.35100
H3426       H  0.65246789  0.87674899  0.19342406     0.40200
H3427       H  0.61742811  0.82772284  0.27684770     0.39800
H3428       H  0.59678909  0.84509231  0.27714176     0.34700
C3429       C  0.92052792  0.44322315  0.31625306    -0.27000
C3430       C  0.90585432  0.45811640  0.32423617    -0.15100
C3431       C  0.88773877  0.45021931  0.33546604     0.35500
C3432       C  0.88381895  0.42802181  0.33699002    -0.26500
C3433       C  0.89780641  0.41317064  0.32779842    -0.15700
C3434       C  0.91671892  0.42104527  0.31784183     0.36600
N3435       N  0.93161278  0.40699776  0.30771014    -0.90000
H3436       H  0.93412611  0.44879941  0.30702240     0.17700
H3437       H  0.86954352  0.42240478  0.34509925     0.17700
N3438       N  0.87274873  0.46483764  0.34464292    -0.89000
H3439       H  0.92342775  0.39795077  0.29624124     0.35100
H3440       H  0.93805098  0.39676996  0.31926684     0.40200
H3441       H  0.87164766  0.46155424  0.36104652     0.39800
H3442       H  0.85777280  0.46191243  0.33775904     0.34700
C3443       C  0.87934243  0.57506410  0.31613468    -0.27000
C3444       C  0.90091896  0.56838624  0.31595336    -0.15100
C3445       C  0.91669422  0.58413022  0.31969816     0.35500
C3446       C  0.91075852  0.60564410  0.32381114    -0.26500
C3447       C  0.88915130  0.61238590  0.32369615    -0.15700
C3448       C  0.87342372  0.59664311  0.31950733     0.36600
N3449       N  0.85132638  0.60240505  0.31842030    -0.90000
H3450       H  0.86679519  0.56351569  0.31291499     0.17700
H3451       H  0.92333171  0.61726742  0.32663426     0.17700
N3452       N  0.93880985  0.57839349  0.31950634    -0.89000
H3453       H  0.84299319  0.59331320  0.32976883     0.35100
H3454       H  0.84559058  0.59828489  0.30321741     0.40200
H3455       H  0.94536143  0.58236573  0.33440975     0.39800
H3456       H  0.94647632  0.58766498  0.30783208     0.34700
C3457       C  0.84689691  0.56860298  0.24927958    -0.27000
C3458       C  0.84440723  0.54651107  0.25113534    -0.15100
C3459       C  0.82745869  0.53585566  0.24077521     0.35500
C3460       C  0.81439484  0.54718925  0.22685068    -0.26500
C3461       C  0.81836064  0.56883054  0.22313400    -0.15700
C3462       C  0.83411138  0.57990897  0.23494749     0.36600
N3463       N  0.83854679  0.60204937  0.23087232    -0.90000
H3464       H  0.86013844  0.57665109  0.25714205     0.17700
H3465       H  0.80203908  0.53882181  0.21794908     0.17700
N3466       N  0.82432578  0.51330798  0.24345130    -0.89000
H3467       H  0.85432463  0.60340226  0.22550002     0.35100
H3468       H  0.83739990  0.61026688  0.24540004     0.40200
H3469       H  0.82563754  0.50604347  0.22842539     0.39800
H3470       H  0.80873877  0.51082480  0.24897206     0.34700
C3471       C  0.86251751  0.44273277  0.24557703    -0.27000
C3472       C  0.85428818  0.45881919  0.25862402    -0.15100
C3473       C  0.83207513  0.46254835  0.25865999     0.35500
C3474       C  0.82025651  0.45604357  0.24078767    -0.26500
C3475       C  0.83059951  0.44539570  0.22407088    -0.15700
C3476       C  0.85105458  0.43643952  0.22765671     0.36600
N3477       N  0.86129549  0.42244813  0.21275562    -0.90000
H3478       H  0.87920458  0.43826454  0.24679060     0.17700
H3479       H  0.80387669  0.46129923  0.23890653     0.17700
N3480       N  0.82238773  0.47521054  0.27517677    -0.89000
H3481       H  0.86501797  0.43098161  0.19889988     0.35100
H3482       H  0.85085621  0.40997069  0.20898420     0.40200
H3483       H  0.82403543  0.46681619  0.28958646     0.39800
H3484       H  0.80597455  0.47672791  0.27241894     0.34700
C3485       C  0.41018829  0.95652391  0.31396807    -0.27000
C3486       C  0.42500383  0.93983589  0.31539883    -0.15100
C3487       C  0.41685250  0.91912491  0.32054507     0.35500
C3488       C  0.39455396  0.91555084  0.32322192    -0.26500
C3489       C  0.37960509  0.93211231  0.32082052    -0.15700
C3490       C  0.38804500  0.95310149  0.31665293     0.36600
N3491       N  0.37470885  0.97161523  0.31508090    -0.90000
H3492       H  0.41579047  0.97251917  0.31020669     0.17700
H3493       H  0.38890877  0.89948234  0.32654662     0.17700
N3494       N  0.43103940  0.90130970  0.32237272    -0.89000
H3495       H  0.36538565  0.97275489  0.32892739     0.35100
H3496       H  0.36499271  0.97036603  0.30150575     0.40200
H3497       H  0.42640217  0.88981194  0.31111744     0.39800
H3498       H  0.42918033  0.89467681  0.33765875     0.34700
C3499       C  0.54250844  0.91475299  0.32634102    -0.27000
C3500       C  0.53535978  0.93540295  0.32034798    -0.15100
C3501       C  0.55085871  0.95157441  0.31794241     0.35500
C3502       C  0.57276932  0.94662136  0.32001337    -0.26500
C3503       C  0.58002725  0.92557662  0.32429427    -0.15700
C3504       C  0.56435509  0.90968581  0.32820515     0.36600
N3505       N  0.56996247  0.88805089  0.33313842    -0.90000
H3506       H  0.53098053  0.90191820  0.32834083     0.17700
H3507       H  0.58422416  0.95941852  0.31748673     0.17700
N3508       N  0.54460780  0.97280678  0.31213300    -0.89000
H3509       H  0.57883181  0.88793743  0.34734610     0.35100
H3510       H  0.57933880  0.88205216  0.32067817     0.40200
H3511       H  0.55199361  0.97671575  0.29760615     0.39800
H3512       H  0.55040009  0.98327125  0.32385261     0.34700
C3513       C  0.51519576  0.86560226  0.24765960    -0.27000
C3514       C  0.52448595  0.88587060  0.25080906    -0.15100
C3515       C  0.54497731  0.89045667  0.24296596     0.35500
C3516       C  0.55469234  0.87570955  0.22960656    -0.26500
C3517       C  0.54364976  0.85712950  0.22368338    -0.15700
C3518       C  0.52439060  0.85129645  0.23339624     0.36600
N3519       N  0.51387608  0.83157318  0.22784578    -0.90000
H3520       H  0.49980367  0.86174508  0.25459386     0.17700
H3521       H  0.56996184  0.87965228  0.22233463     0.17700
N3522       N  0.55536357  0.91037513  0.24767181    -0.89000
H3523       H  0.49954613  0.82994074  0.23631554     0.35100
H3524       H  0.52374752  0.81905641  0.23281836     0.40200
H3525       H  0.55853268  0.91819033  0.23317344     0.39800
H3526       H  0.56999809  0.90701706  0.25503304     0.34700
C3527       C  0.45159761  0.87061764  0.23514122    -0.27000
C3528       C  0.44068655  0.88654886  0.24646480    -0.15100
C3529       C  0.41842094  0.88788439  0.24549720     0.35500
C3530       C  0.40742422  0.87430247  0.23156966    -0.26500
C3531       C  0.41870319  0.85990984  0.21850560    -0.15700
C3532       C  0.44076656  0.85731584  0.22102286     0.36600
N3533       N  0.45225079  0.84175549  0.20880336    -0.90000
H3534       H  0.46882970  0.86958611  0.23600706     0.17700
H3535       H  0.39030516  0.87623427  0.22972336     0.17700
N3536       N  0.40727888  0.90414185  0.25705586    -0.89000
H3537       H  0.45994107  0.83147511  0.21953466     0.35100
H3538       H  0.46399874  0.84973446  0.19990984     0.40200
H3539       H  0.39577360  0.89669140  0.26668637     0.39800
H3540       H  0.39933658  0.91372705  0.24590614     0.34700
C3541       C  0.11517108  0.77801778  0.62240491    -0.27000
C3542       C  0.12723262  0.79264491  0.63463107    -0.15100
C3543       C  0.13375413  0.78625964  0.65537496     0.35500
C3544       C  0.12902316  0.76542446  0.66292116    -0.26500
C3545       C  0.11824595  0.75024928  0.65005976    -0.15700
C3546       C  0.11057528  0.75707514  0.62977901     0.36600
N3547       N  0.09801955  0.74282751  0.61671327    -0.90000
H3548       H  0.10981393  0.78281903  0.60659179     0.17700
H3549       H  0.13438892  0.76086749  0.67879655     0.17700
N3550       N  0.14597786  0.80028678  0.66877566    -0.89000
H3551       H  0.09380512  0.75019422  0.60225899     0.35100
H3552       H  0.08371682  0.73973526  0.62482025     0.40200
H3553       H  0.13709020  0.81418621  0.67122601     0.39800
H3554       H  0.16002942  0.80444845  0.66069727     0.34700
C3555       C  0.39264773  0.91614070  0.65047775    -0.27000
C3556       C  0.37705798  0.92792232  0.66161339    -0.15100
C3557       C  0.38438023  0.94529940  0.67447364     0.35500
C3558       C  0.40619825  0.95087596  0.67517765    -0.26500
C3559       C  0.42181063  0.93914798  0.66422021    -0.15700
C3560       C  0.41477101  0.92133012  0.65194251     0.36600
N3561       N  0.42999676  0.90822930  0.64107483    -0.90000
H3562       H  0.38771945  0.90273075  0.64064977     0.17700
H3563       H  0.41100348  0.96404334  0.68540600     0.17700
N3564       N  0.36984271  0.95719826  0.68754949    -0.89000
H3565       H  0.42617120  0.90819473  0.62475581     0.35100
H3566       H  0.42833648  0.89259177  0.64682575     0.40200
H3567       H  0.37082373  0.97330591  0.68311696     0.39800
H3568       H  0.37477346  0.95587428  0.70352269     0.34700
C3569       C  0.23368425  0.88715938  0.63000282    -0.27000
C3570       C  0.24794561  0.87265018  0.63967026    -0.15100
C3571       C  0.23996751  0.85205775  0.64490090     0.35500
C3572       C  0.21811834  0.84720059  0.64117816    -0.26500
C3573       C  0.20361385  0.86243477  0.63279755    -0.15700
C3574       C  0.21193389  0.88266464  0.62694970     0.36600
N3575       N  0.19882452  0.89917498  0.61798475    -0.90000
H3576       H  0.23930143  0.90290183  0.62593142     0.17700
H3577       H  0.21235832  0.83134623  0.64526945     0.17700
N3578       N  0.25310484  0.83600034  0.65474016    -0.89000
H3579       H  0.18691780  0.90304637  0.62903633     0.35100
H3580       H  0.19169827  0.89354951  0.60391344     0.40200
H3581       H  0.26882911  0.84129767  0.65651538     0.39800
H3582       H  0.25365603  0.82297213  0.64427576     0.34700
C3583       C  0.14178006  0.60949640  0.90932641    -0.27000
C3584       C  0.15028129  0.59660011  0.89298437    -0.15100
C3585       C  0.16037092  0.57712567  0.89942370     0.35500
C3586       C  0.16196843  0.57144038  0.92121025    -0.26500
C3587       C  0.15411344  0.58455434  0.93754590    -0.15700
C3588       C  0.14361159  0.60372857  0.93131958     0.36600
N3589       N  0.13494935  0.61764953  0.94725809    -0.90000
H3590       H  0.13376739  0.62423521  0.90509482     0.17700
H3591       H  0.17030246  0.55683605  0.92532940     0.17700
N3592       N  0.16957531  0.56293200  0.88397581    -0.89000
H3593       H  0.11861961  0.61941860  0.94419056     0.35100
H3594       H  0.14224138  0.63263470  0.94557096     0.40200
H3595       H  0.16225940  0.54794803  0.88559447     0.39800
H3596       H  0.18583675  0.56124510  0.88746715     0.34700
C3597       C  0.12378321  0.67383259  0.76466965    -0.27000
C3598       C  0.13840233  0.65713393  0.76348110    -0.15100
C3599       C  0.14610090  0.65132206  0.74268859     0.35500
C3600       C  0.13782133  0.66098019  0.72394481    -0.26500
C3601       C  0.12210178  0.67675118  0.72505563    -0.15700
C3602       C  0.11565489  0.68366037  0.74609978     0.36600
N3603       N  0.10079325  0.70069931  0.74953094    -0.90000
H3604       H  0.11800987  0.67894247  0.78020391     0.17700
H3605       H  0.14338715  0.65563395  0.70841768     0.17700
N3606       N  0.16244127  0.63551033  0.74033030    -0.89000
H3607       H  0.08553820  0.69596897  0.74457872     0.35100
H3608       H  0.10589680  0.71427160  0.74113200     0.40200
H3609       H  0.17535828  0.64252414  0.73230096     0.39800
H3610       H  0.15641843  0.62314748  0.73077382     0.34700
C3611       C  0.39151227  0.68178903  0.88399168    -0.27000
C3612       C  0.37668108  0.68307705  0.90080355    -0.15100
C3613       C  0.38471791  0.68828988  0.92158781     0.35500
C3614       C  0.40674234  0.69242345  0.92479326    -0.26500
C3615       C  0.42142285  0.69172375  0.90779083    -0.15700
C3616       C  0.41350470  0.68584853  0.88724793     0.36600
N3617       N  0.42777848  0.68411144  0.86939650    -0.90000
H3618       H  0.38600682  0.67769390  0.86803400     0.17700
H3619       H  0.41219172  0.69733991  0.94053277     0.17700
N3620       N  0.37084313  0.69076136  0.93963144    -0.89000
H3621       H  0.42268439  0.69472034  0.85747943     0.35100
H3622       H  0.42658241  0.66858082  0.86331576     0.40200
H3623       H  0.36318401  0.67620190  0.94269819     0.39800
H3624       H  0.35947809  0.70238974  0.93594342     0.34700
C3625       C  0.23772709  0.65078802  0.91398598    -0.27000
C3626       C  0.24594019  0.66777181  0.92634472    -0.15100
C3627       C  0.23915889  0.67052992  0.94763325     0.35500
C3628       C  0.22563195  0.65541262  0.95667680    -0.26500
C3629       C  0.21956967  0.63710626  0.94524508    -0.15700
C3630       C  0.22494243  0.63503723  0.92348847     0.36600
N3631       N  0.21897826  0.61653211  0.91132275    -0.90000
H3632       H  0.24284233  0.64872067  0.89751566     0.17700
H3633       H  0.22149135  0.65692865  0.97344912     0.17700
N3634       N  0.24624732  0.68807427  0.96061689    -0.89000
H3635       H  0.20231575  0.61517810  0.91159455     0.35100
H3636       H  0.22538065  0.60300680  0.91878267     0.40200
H3637       H  0.24283001  0.70232399  0.95254408     0.39800
H3638       H  0.26274733  0.68700650  0.96287469     0.34700
C3639       C  0.22620893  0.64845119  0.82575384    -0.27000
C3640       C  0.20783755  0.65724614  0.83537134    -0.15100
C3641       C  0.21058340  0.67345742  0.85070302     0.35500
C3642       C  0.23135303  0.68085428  0.85571483    -0.26500
C3643       C  0.24980123  0.67170034  0.84644853    -0.15700
C3644       C  0.24694512  0.65488880  0.83161027     0.36600
N3645       N  0.26469229  0.64416837  0.82201571    -0.90000
H3646       H  0.22448404  0.63581977  0.81399972     0.17700
H3647       H  0.23302415  0.69361205  0.86732399     0.17700
N3648       N  0.19237960  0.68280960  0.86085077    -0.89000
H3649       H  0.27343531  0.63657430  0.83409066     0.35100
H3650       H  0.27443191  0.65556350  0.81452838     0.40200
H3651       H  0.19257326  0.69922241  0.85761986     0.39800
H3652       H  0.19403613  0.68075761  0.87740856     0.34700
C3653       C  0.44589156  0.79483908  0.83236989    -0.27000
C3654       C  0.42389147  0.79091009  0.83025927    -0.15100
C3655       C  0.41449602  0.77301602  0.84050616     0.35500
C3656       C  0.42689654  0.76069396  0.85434491    -0.26500
C3657       C  0.44823364  0.76612464  0.85786954    -0.15700
C3658       C  0.45810639  0.78265658  0.84635977     0.36600
N3659       N  0.48020630  0.78778332  0.84975580    -0.90000
H3660       H  0.45338576  0.80825036  0.82424698     0.17700
H3661       H  0.41959175  0.74765434  0.86322958     0.17700
N3662       N  0.39223403  0.76809305  0.83802428    -0.89000
H3663       H  0.48121721  0.80358663  0.85512888     0.35100
H3664       H  0.48800282  0.78693477  0.83497386     0.40200
H3665       H  0.38502463  0.76863514  0.85313027     0.39800
H3666       H  0.39089284  0.75245340  0.83225959     0.34700
C3667       C  0.40066635  0.88579505  0.75900060    -0.27000
C3668       C  0.40859652  0.86482173  0.75966285    -0.15100
C3669       C  0.41927726  0.85633961  0.74177048     0.35500
C3670       C  0.42502846  0.87017763  0.72518992    -0.26500
C3671       C  0.42090837  0.89212313  0.72702885    -0.15700
C3672       C  0.40708184  0.89974013  0.74286279     0.36600
N3673       N  0.40248182  0.92221272  0.74422287    -0.90000
H3674       H  0.39130154  0.89192224  0.77224305     0.17700
H3675       H  0.43569749  0.86445077  0.71279510     0.17700
N3676       N  0.42629876  0.83458775  0.74100582    -0.89000
H3677       H  0.39304590  0.92543140  0.75765210     0.35100
H3678       H  0.39344685  0.92630804  0.73073319     0.40200
H3679       H  0.41287466  0.82463917  0.74211519     0.39800
H3680       H  0.43624069  0.83170836  0.75417221     0.34700
C3681       C  0.34928274  0.86093921  0.73972784    -0.27000
C3682       C  0.33581945  0.86018084  0.75795482    -0.15100
C3683       C  0.31403016  0.86524166  0.75489473     0.35500
C3684       C  0.30637987  0.87024312  0.73408870    -0.26500
C3685       C  0.31997463  0.87054007  0.71589322    -0.15700
C3686       C  0.34175811  0.86593260  0.71914197     0.36600
N3687       N  0.35658251  0.86644651  0.70165056    -0.90000
H3688       H  0.36615016  0.85744695  0.74126454     0.17700
H3689       H  0.28965087  0.87424100  0.73224976     0.17700
N3690       N  0.29928363  0.86525529  0.77240502    -0.89000
H3691       H  0.36376177  0.85142072  0.70053160     0.35100
H3692       H  0.36851010  0.87766576  0.70521960     0.40200
H3693       H  0.30461429  0.87637765  0.78372398     0.39800
H3694       H  0.29930342  0.85007151  0.77944692     0.34700
C3695       C  0.33504073  0.76930558  0.82014667    -0.27000
C3696       C  0.33498482  0.78774987  0.83342165    -0.15100
C3697       C  0.32878489  0.78486179  0.85505420     0.35500
C3698       C  0.32273347  0.76455115  0.86251127    -0.26500
C3699       C  0.32260902  0.74609110  0.84937263    -0.15700
C3700       C  0.32899910  0.74878178  0.82779004     0.36600
N3701       N  0.32917191  0.73120472  0.81313602    -0.90000
H3702       H  0.33996538  0.77072901  0.80356386     0.17700
H3703       H  0.31791995  0.76340609  0.87913150     0.17700
N3704       N  0.32852919  0.80209697  0.87014723    -0.89000
H3705       H  0.31377021  0.72469072  0.81242875     0.35100
H3706       H  0.33960506  0.71959204  0.81906000     0.40200
H3707       H  0.31824221  0.81398450  0.86452628     0.39800
H3708       H  0.34400813  0.80826151  0.87170613     0.34700
C3709       C  0.30881445  0.92080015  0.42738345    -0.27000
C3710       C  0.30368636  0.94187526  0.43372925    -0.15100
C3711       C  0.30198722  0.95746541  0.41734160     0.35500
C3712       C  0.30548647  0.95194343  0.39563328    -0.26500
C3713       C  0.31019844  0.93085328  0.38921577    -0.15700
C3714       C  0.31187256  0.91511653  0.40550901     0.36600
N3715       N  0.31660450  0.89337478  0.39988716    -0.90000
H3716       H  0.30979484  0.90843078  0.43951683     0.17700
H3717       H  0.30387785  0.96432333  0.38356714     0.17700
N3718       N  0.29632336  0.97900922  0.42251594    -0.89000
H3719       H  0.31697388  0.88370266  0.41357230     0.35100
H3720       H  0.33200871  0.89315317  0.39341422     0.40200
H3721       H  0.28226396  0.98276227  0.41426822     0.39800
H3722       H  0.30845117  0.98913258  0.41694031     0.34700
C3723       C  0.30732006  0.91597244  0.55147897    -0.27000
C3724       C  0.30195059  0.93682350  0.54459693    -0.15100
C3725       C  0.30162684  0.95307323  0.56044706     0.35500
C3726       C  0.30609647  0.94803549  0.58219842    -0.26500
C3727       C  0.31033019  0.92686876  0.58908513    -0.15700
C3728       C  0.31108213  0.91081315  0.57310778     0.36600
N3729       N  0.31559277  0.88894687  0.57818798    -0.90000
H3730       H  0.30775326  0.90305639  0.53992851     0.17700
H3731       H  0.30526556  0.96070810  0.59398593     0.17700
N3732       N  0.29581079  0.97457576  0.55524944    -0.89000
H3733       H  0.30330064  0.88286413  0.58777168     0.35100
H3734       H  0.33004675  0.88828255  0.58658594     0.40200
H3735       H  0.28037988  0.97442425  0.54883784     0.39800
H3736       H  0.30640386  0.98033847  0.54363250     0.34700
C3737       C  0.22521376  0.86808634  0.51854620    -0.27000
C3738       C  0.23288090  0.88733080  0.52707592    -0.15100
C3739       C  0.23178339  0.89107764  0.54936451     0.35500
C3740       C  0.21990629  0.87698826  0.56206765    -0.26500
C3741       C  0.20929076  0.85955519  0.55278381    -0.15700
C3742       C  0.21326334  0.85417174  0.53117965     0.36600
N3743       N  0.20481345  0.83512205  0.52152404    -0.90000
H3744       H  0.22692305  0.86472580  0.50158534     0.17700
H3745       H  0.21753574  0.88070235  0.57883036     0.17700
N3746       N  0.24185099  0.90918276  0.55941396    -0.89000
H3747       H  0.18816286  0.83586861  0.52101832     0.35100
H3748       H  0.20930756  0.82202885  0.53092506     0.40200
H3749       H  0.25099076  0.91797686  0.54850526     0.39800
H3750       H  0.25267524  0.90332008  0.57075879     0.34700
C3751       C  0.23792146  0.86958013  0.44953256    -0.27000
C3752       C  0.23932964  0.88987330  0.43995217    -0.15100
C3753       C  0.22742751  0.89461978  0.42162071     0.35500
C3754       C  0.21164918  0.88030125  0.41512619    -0.26500
C3755       C  0.20761702  0.86171557  0.42716442    -0.15700
C3756       C  0.22174167  0.85545717  0.44347686     0.36600
N3757       N  0.21857519  0.83619774  0.45554791    -0.90000
H3758       H  0.24724525  0.86603058  0.46375622     0.17700
H3759       H  0.20107460  0.88479503  0.40209661     0.17700
N3760       N  0.22977709  0.91489519  0.41113371    -0.89000
H3761       H  0.21898822  0.82330388  0.44491727     0.35100
H3762       H  0.20343100  0.83667098  0.46259781     0.40200
H3763       H  0.21508482  0.92278544  0.41171127     0.39800
H3764       H  0.23338169  0.91200992  0.39504208     0.34700
C3765       C  0.30965458  0.57551823  0.88813820    -0.27000
C3766       C  0.30260285  0.56797789  0.90837669    -0.15100
C3767       C  0.29869929  0.58331494  0.92435442     0.35500
C3768       C  0.30136594  0.60535397  0.91986706    -0.26500
C3769       C  0.30785579  0.61307712  0.89946516    -0.15700
C3770       C  0.31239131  0.59754895  0.88358190     0.36600
N3771       N  0.31915685  0.60351506  0.86247931    -0.90000
H3772       H  0.31247001  0.56413805  0.87537957     0.17700
H3773       H  0.29779767  0.61655599  0.93257947     0.17700
N3774       N  0.29084255  0.57674200  0.94489137    -0.89000
H3775       H  0.33352228  0.61201902  0.86370500     0.35100
H3776       H  0.30752935  0.61339945  0.85568510     0.40200
H3777       H  0.27604501  0.58404649  0.94736015     0.39800
H3778       H  0.30143127  0.58239964  0.95657341     0.34700
C3779       C  0.23315074  0.56645296  0.86495501    -0.27000
C3780       C  0.23480338  0.54490731  0.85936694    -0.15100
C3781       C  0.22545434  0.53714271  0.84036134     0.35500
C3782       C  0.21340702  0.55090551  0.82788319    -0.26500
C3783       C  0.21015166  0.57199088  0.83447428    -0.15700
C3784       C  0.22062783  0.58010185  0.85279991     0.36600
N3785       N  0.21729481  0.60138051  0.86051547    -0.90000
H3786       H  0.24029090  0.57226712  0.87970588     0.17700
H3787       H  0.20519922  0.54469446  0.81387234     0.17700
N3788       N  0.22644948  0.51510457  0.83433090    -0.89000
H3789       H  0.20095536  0.60363380  0.86313044     0.35100
H3790       H  0.22251520  0.61208042  0.84878879     0.40200
H3791       H  0.22018662  0.50578862  0.84678318     0.39800
H3792       H  0.24248944  0.51120314  0.83214935     0.34700
C3793       C  0.41194871  0.18265483  0.89928154    -0.27000
C3794       C  0.39111303  0.18483119  0.89052558    -0.15100
C3795       C  0.37456678  0.19023641  0.90482272     0.35500
C3796       C  0.37902887  0.19384141  0.92670600    -0.26500
C3797       C  0.39997741  0.19282621  0.93541315    -0.15700
C3798       C  0.41654885  0.18665618  0.92133704     0.36600
N3799       N  0.43807601  0.18510387  0.92917147    -0.90000
H3800       H  0.42496985  0.17839859  0.88871962     0.17700
H3801       H  0.36573100  0.19838803  0.93680049     0.17700
N3802       N  0.35307141  0.19251574  0.89725492    -0.89000
H3803       H  0.44846078  0.18086888  0.91678142     0.35100
H3804       H  0.43845932  0.17258079  0.94029259     0.40200
H3805       H  0.34804740  0.20807545  0.90065171     0.39800
H3806       H  0.34335712  0.18190082  0.90584801     0.34700
C3807       C  0.15094605  0.44569694  0.90105463    -0.27000
C3808       C  0.15012295  0.42526350  0.89130890    -0.15100
C3809       C  0.15325337  0.40727989  0.90484913     0.35500
C3810       C  0.15716571  0.41006500  0.92687741    -0.26500
C3811       C  0.15907631  0.43045235  0.93651484    -0.15700
C3812       C  0.15565713  0.44847837  0.92311599     0.36600
N3813       N  0.15766461  0.46983311  0.93110207    -0.90000
H3814       H  0.14884386  0.45984784  0.89124588     0.17700
H3815       H  0.15964617  0.39578981  0.93641883     0.17700
N3816       N  0.15291707  0.38581845  0.89685892    -0.89000
H3817       H  0.17316574  0.47194842  0.93700882     0.35100
H3818       H  0.14678394  0.47179503  0.94363833     0.40200
H3819       H  0.16557635  0.38386333  0.88613624     0.39800
H3820       H  0.13839042  0.38313130  0.88899621     0.34700
C3821       C  0.23143247  0.46117690  0.82863550    -0.27000
C3822       C  0.21329623  0.45068291  0.83658123    -0.15100
C3823       C  0.21463352  0.43941264  0.85621263     0.35500
C3824       C  0.23226011  0.44247974  0.86944141    -0.26500
C3825       C  0.24775370  0.45737156  0.86365300    -0.15700
C3826       C  0.24912253  0.46432163  0.84220509     0.36600
N3827       N  0.26704841  0.47707524  0.83546137    -0.90000
H3828       H  0.23098448  0.46866092  0.81296517     0.17700
H3829       H  0.23178610  0.43635195  0.88570820     0.17700
N3830       N  0.19742620  0.42617271  0.86356671    -0.89000
H3831       H  0.26545920  0.48125474  0.81930130     0.35100
H3832       H  0.28064792  0.46748097  0.83656539     0.40200
H3833       H  0.19226094  0.43225328  0.87825987     0.39800
H3834       H  0.20345249  0.41085664  0.86640002     0.34700
C3835       C  0.24646635  0.36942322  0.92051474    -0.27000
C3836       C  0.25303118  0.35004263  0.92969348    -0.15100
C3837       C  0.24463581  0.34328244  0.94941265     0.35500
C3838       C  0.23183774  0.35748533  0.96102613    -0.26500
C3839       C  0.22812759  0.37823309  0.95321890    -0.15700
C3840       C  0.23432211  0.38378904  0.93232144     0.36600
N3841       N  0.22940229  0.40442305  0.92361190    -0.90000
H3842       H  0.25288850  0.37448664  0.90516450     0.17700
H3843       H  0.22666904  0.35317883  0.97704122     0.17700
N3844       N  0.25101278  0.32315591  0.95846983    -0.89000
H3845       H  0.22081533  0.40216591  0.90939619     0.35100
H3846       H  0.24377909  0.41212015  0.91978467     0.40200
H3847       H  0.24507558  0.31110227  0.94848315     0.39800
H3848       H  0.24387878  0.32089003  0.97345950     0.34700
C3849       C  0.36497269  0.26997709  0.92590171    -0.27000
C3850       C  0.35759732  0.25879139  0.94388310    -0.15100
C3851       C  0.33543741  0.25509507  0.94645955     0.35500
C3852       C  0.32116964  0.26741833  0.93463327    -0.26500
C3853       C  0.32904206  0.28152494  0.91926196    -0.15700
C3854       C  0.35055628  0.28103178  0.91312537     0.36600
N3855       N  0.35789125  0.29296012  0.89494926    -0.90000
H3856       H  0.38192720  0.27171895  0.92291184     0.17700
H3857       H  0.30423665  0.26689483  0.93826745     0.17700
N3858       N  0.32743625  0.23978688  0.96160405    -0.89000
H3859       H  0.36434209  0.28209563  0.88404610     0.35100
H3860       H  0.37022193  0.30309287  0.89996636     0.40200
H3861       H  0.31838883  0.22849443  0.95316840     0.39800
H3862       H  0.31716056  0.24757329  0.97217684     0.34700
C3863       C  0.32018862  0.43014033  0.89078261    -0.27000
C3864       C  0.31470630  0.41388000  0.90535475    -0.15100
C3865       C  0.30659702  0.41997327  0.92560215     0.35500
C3866       C  0.30383437  0.44183242  0.93068352    -0.26500
C3867       C  0.30907705  0.45822401  0.91600765    -0.15700
C3868       C  0.31768735  0.45201302  0.89592028     0.36600
N3869       N  0.32351245  0.46781458  0.88032533    -0.90000
H3870       H  0.32651241  0.42586810  0.87521192     0.17700
H3871       H  0.29682348  0.44590268  0.94600877     0.17700
N3872       N  0.30018278  0.40395900  0.94076886    -0.89000
H3873       H  0.31460406  0.46498305  0.86641541     0.35100
H3874       H  0.33967236  0.46580237  0.87662634     0.40200
H3875       H  0.30875474  0.40645935  0.95494732     0.39800
H3876       H  0.28394956  0.40607200  0.94409927     0.34700
C3877       C  0.31335353  0.27385058  0.83947997    -0.27000
C3878       C  0.32706585  0.29180036  0.84200346    -0.15100
C3879       C  0.34924367  0.28849786  0.83886548     0.35500
C3880       C  0.35694695  0.26802220  0.83428239    -0.26500
C3881       C  0.34347347  0.24994011  0.83217158    -0.15700
C3882       C  0.32122314  0.25322870  0.83446309     0.36600
N3883       N  0.30619944  0.23619727  0.83130584    -0.90000
H3884       H  0.29628798  0.27574562  0.84161613     0.17700
H3885       H  0.37402962  0.26643165  0.83215912     0.17700
N3886       N  0.36463765  0.30550194  0.84008749    -0.89000
H3887       H  0.30947350  0.22411829  0.84241929     0.35100
H3888       H  0.30831115  0.23009213  0.81586226     0.40200
H3889       H  0.36491141  0.31171132  0.85561060     0.39800
H3890       H  0.36039557  0.31746109  0.82917150     0.34700
C3891       C  0.25277792  0.37698658  0.83247395    -0.27000
C3892       C  0.25202495  0.36182997  0.84889740    -0.15100
C3893       C  0.23142400  0.35473893  0.85611178     0.35500
C3894       C  0.21257970  0.36339240  0.84740148    -0.26500
C3895       C  0.21339147  0.37909115  0.83155309    -0.15700
C3896       C  0.23390352  0.38558457  0.82374848     0.36600
N3897       N  0.23581238  0.40111233  0.80691660    -0.90000
H3898       H  0.26810610  0.38255115  0.82656213     0.17700
H3899       H  0.19723649  0.35826139  0.85366233     0.17700
N3900       N  0.22930703  0.33879410  0.87252546    -0.89000
H3901       H  0.24424490  0.39419894  0.79425657     0.35100
H3902       H  0.24477554  0.41402947  0.81270702     0.40200
H3903       H  0.22045393  0.32600338  0.86631734     0.39800
H3904       H  0.22069819  0.34538064  0.88524905     0.34700
C3905       C  0.14080547  0.38198221  0.72061050    -0.27000
C3906       C  0.12643253  0.36474047  0.71943081    -0.15100
C3907       C  0.12018337  0.35470247  0.73894369     0.35500
C3908       C  0.12772603  0.36240343  0.75883270    -0.26500
C3909       C  0.14220183  0.37951508  0.75998406    -0.15700
C3910       C  0.14901272  0.38910960  0.74050073     0.36600
N3911       N  0.16391492  0.40653554  0.74077702    -0.90000
H3912       H  0.14589313  0.38989110  0.70600213     0.17700
H3913       H  0.12232743  0.35477862  0.77348460     0.17700
N3914       N  0.10571946  0.33687888  0.73879624    -0.89000
H3915       H  0.15670765  0.41968951  0.73338381     0.35100
H3916       H  0.17718566  0.40219948  0.73161752     0.40200
H3917       H  0.09237798  0.34082372  0.74803307     0.39800
H3918       H  0.11332619  0.32394074  0.74615510     0.34700
C3919       C  0.11545521  0.27243039  0.65640963    -0.27000
C3920       C  0.12430610  0.29241662  0.64983207    -0.15100
C3921       C  0.14281239  0.29205943  0.63721437     0.35500
C3922       C  0.15132338  0.27228225  0.63064469    -0.26500
C3923       C  0.14157850  0.25238543  0.63599114    -0.15700
C3924       C  0.12365736  0.25272090  0.64953298     0.36600
N3925       N  0.11277972  0.23349145  0.65573232    -0.90000
H3926       H  0.10137594  0.27191863  0.66648918     0.17700
H3927       H  0.16532556  0.27261903  0.62043770     0.17700
N3928       N  0.15270869  0.31161743  0.63045971    -0.89000
H3929       H  0.12359096  0.22370663  0.66389092     0.35100
H3930       H  0.10764539  0.22558544  0.64188588     0.40200
H3931       H  0.15291968  0.31185386  0.61369977     0.39800
H3932       H  0.16853360  0.31158027  0.63586092     0.34700
C3933       C  0.31413844  0.16113585  0.73561735    -0.27000
C3934       C  0.32600851  0.16780928  0.71748652    -0.15100
C3935       C  0.34426807  0.18068658  0.72116786     0.35500
C3936       C  0.35023974  0.18618702  0.74228906    -0.26500
C3937       C  0.33887052  0.17883990  0.76048980    -0.15700
C3938       C  0.32022766  0.16635143  0.75686126     0.36600
N3939       N  0.30673307  0.15905981  0.77406004    -0.90000
H3940       H  0.29992080  0.15145525  0.73333895     0.17700
H3941       H  0.36428249  0.19613935  0.74446502     0.17700
N3942       N  0.35682812  0.18888278  0.70380322    -0.89000
H3943       H  0.29161800  0.16574326  0.77170693     0.35100
H3944       H  0.31196644  0.16468613  0.78888150     0.40200
H3945       H  0.34678392  0.19741155  0.69349628     0.39800
H3946       H  0.36336906  0.17602753  0.69543146     0.34700
C3947       C  0.24413245  0.15556175  0.62694153    -0.27000
C3948       C  0.25775351  0.16779820  0.64009005    -0.15100
C3949       C  0.25012429  0.18771410  0.64775200     0.35500
C3950       C  0.22915626  0.19437365  0.64250653    -0.26500
C3951       C  0.21505879  0.18130516  0.63061031    -0.15700
C3952       C  0.22308131  0.16180637  0.62239217     0.36600
N3953       N  0.21033373  0.14793447  0.60924728    -0.90000
H3954       H  0.24954532  0.14017530  0.62112969     0.17700
H3955       H  0.22360118  0.20965027  0.64842651     0.17700
N3956       N  0.26276515  0.20124460  0.66144188    -0.89000
H3957       H  0.20481189  0.15652851  0.59598357     0.35100
H3958       H  0.19723554  0.14254884  0.61814805     0.40200
H3959       H  0.27800247  0.19501284  0.66394200     0.39800
H3960       H  0.25525690  0.20176753  0.67639556     0.34700
C3961       C  0.04446811  0.34018465  0.42420337    -0.27000
C3962       C  0.06164591  0.34097528  0.43862526    -0.15100
C3963       C  0.08218130  0.34641547  0.43021572     0.35500
C3964       C  0.08512716  0.34960286  0.40791193    -0.26500
C3965       C  0.06819615  0.34764984  0.39326936    -0.15700
C3966       C  0.04739067  0.34332156  0.40194924     0.36600
N3967       N  0.02870477  0.34177426  0.38873388    -0.90000
H3968       H  0.02870666  0.33597677  0.43008283     0.17700
H3969       H  0.10098009  0.35318873  0.40189844     0.17700
N3970       N  0.10025912  0.34832584  0.44435878    -0.89000
H3971       H  0.03022404  0.32871888  0.37842145     0.35100
H3972       H  0.02710728  0.35590939  0.37991076     0.40200
H3973       H  0.09740128  0.36125516  0.45454740     0.39800
H3974       H  0.11416204  0.35199164  0.43579690     0.34700
C3975       C  0.04775503  0.35132119  0.58618796    -0.27000
C3976       C  0.06937670  0.35464901  0.59191850    -0.15100
C3977       C  0.08460365  0.35456309  0.57526418     0.35500
C3978       C  0.07817808  0.35072729  0.55377926    -0.26500
C3979       C  0.05666582  0.34634154  0.54815293    -0.15700
C3980       C  0.04133193  0.34696000  0.56492600     0.36600
N3981       N  0.01905809  0.34319627  0.56106393    -0.90000
H3982       H  0.03559895  0.35138693  0.59854816     0.17700
H3983       H  0.09040260  0.35038799  0.54150382     0.17700
N3984       N  0.10665773  0.35849711  0.57998226    -0.89000
H3985       H  0.01693039  0.32744497  0.55591202     0.35100
H3986       H  0.01387647  0.35369485  0.54909312     0.40200
H3987       H  0.11543876  0.34530681  0.57476743     0.39800
H3988       H  0.11158836  0.37182528  0.57109957     0.34700
C3989       C  0.12751009  0.28615618  0.54270684    -0.27000
C3990       C  0.10596686  0.28211361  0.54767611    -0.15100
C3991       C  0.10048080  0.26646753  0.56277278     0.35500
C3992       C  0.11627428  0.25250717  0.56975861    -0.26500
C3993       C  0.13693961  0.25362396  0.56100601    -0.15700
C3994       C  0.14325085  0.27165573  0.54922774     0.36600
N3995       N  0.16493988  0.27421016  0.54236609    -0.90000
H3996       H  0.13165288  0.29861197  0.53131690     0.17700
H3997       H  0.11183023  0.23914555  0.57996334     0.17700
N3998       N  0.07848614  0.26313528  0.56859161    -0.89000
H3999       H  0.17051084  0.28887881  0.54818879     0.35100
H4000       H  0.16516467  0.27498265  0.52564560     0.40200
H4001       H  0.07335654  0.27687428  0.57655039     0.39800
H4002       H  0.07706447  0.25045561  0.57946346     0.34700
C4003       C  0.10700418  0.26871495  0.43797998    -0.27000
C4004       C  0.11172496  0.27129247  0.45973258    -0.15100
C4005       C  0.13093544  0.26335625  0.46837109     0.35500
C4006       C  0.14408772  0.25085494  0.45541090    -0.26500
C4007       C  0.13856064  0.24700381  0.43405223    -0.15700
C4008       C  0.12049055  0.25678648  0.42492964     0.36600
N4009       N  0.11492994  0.25326137  0.40291880    -0.90000
H4010       H  0.09230373  0.27509762  0.43138322     0.17700
H4011       H  0.15815649  0.24333605  0.46216573     0.17700
N4012       N  0.13609284  0.26653775  0.49059153    -0.89000
H4013       H  0.11375276  0.26816854  0.39539871     0.35100
H4014       H  0.09985797  0.24598320  0.40240344     0.40200
H4015       H  0.13943950  0.28279875  0.49264100     0.39800
H4016       H  0.15008936  0.25836413  0.49457184     0.34700
C4017       C  0.31829872  0.12446761  0.40696257    -0.27000
C4018       C  0.31775150  0.10719876  0.39271943    -0.15100
C4019       C  0.31515934  0.08625576  0.40164046     0.35500
C4020       C  0.31128563  0.08347473  0.42378843    -0.26500
C4021       C  0.31043717  0.10098126  0.43777963    -0.15700
C4022       C  0.31526118  0.12156116  0.42917529     0.36600
N4023       N  0.31674857  0.13983458  0.44294149    -0.90000
H4024       H  0.32099935  0.14047793  0.40082737     0.17700
H4025       H  0.30779594  0.06758475  0.42983570     0.17700
N4026       N  0.31531710  0.06744500  0.38859240    -0.89000
H4027       H  0.30548254  0.15107081  0.43786378     0.35100
H4028       H  0.33195615  0.14658884  0.44110602     0.40200
H4029       H  0.33026542  0.06614865  0.38127008     0.39800
H4030       H  0.30345801  0.06881378  0.37687917     0.34700
C4031       C  0.30130874  0.08263207  0.56405472    -0.27000
C4032       C  0.30709691  0.09710756  0.54770654    -0.15100
C4033       C  0.31639227  0.11691117  0.55416505     0.35500
C4034       C  0.31935296  0.12177233  0.57614662    -0.26500
C4035       C  0.31356614  0.10729428  0.59237565    -0.15700
C4036       C  0.30441065  0.08747776  0.58603121     0.36600
N4037       N  0.29735370  0.07245495  0.60191441    -0.90000
H4038       H  0.29367453  0.06762706  0.55985432     0.17700
H4039       H  0.32634929  0.13703995  0.58050745     0.17700
N4040       N  0.32262442  0.13249255  0.53850144    -0.89000
H4041       H  0.30524817  0.05799594  0.59928293     0.35100
H4042       H  0.28097398  0.06982253  0.59974626     0.40200
H4043       H  0.33891189  0.13572075  0.54053143     0.39800
H4044       H  0.31419033  0.14656969  0.54151761     0.34700
C4045       C  0.22760523  0.16719201  0.51840751    -0.27000
C4046       C  0.24121756  0.15480145  0.53127521    -0.15100
C4047       C  0.24471035  0.16025423  0.55277421     0.35500
C4048       C  0.23184459  0.17619724  0.56177615    -0.26500
C4049       C  0.21564045  0.18598033  0.54945953    -0.15700
C4050       C  0.21491512  0.18295368  0.52722996     0.36600
N4051       N  0.20016363  0.19467950  0.51401683    -0.90000
H4052       H  0.22531269  0.16320618  0.50167626     0.17700
H4053       H  0.23303024  0.17935861  0.57879908     0.17700
N4054       N  0.25990190  0.14869689  0.56558967    -0.89000
H4055       H  0.20149742  0.19011459  0.49795336     0.35100
H4056       H  0.20455412  0.21081291  0.51474359     0.40200
H4057       H  0.25448152  0.13291370  0.56696511     0.39800
H4058       H  0.26045686  0.15491701  0.58112627     0.34700
C4059       C  0.22490410  0.18329970  0.44022046    -0.27000
C4060       C  0.21062318  0.17377079  0.42587723    -0.15100
C4061       C  0.21401380  0.15249113  0.41905092     0.35500
C4062       C  0.22792521  0.13975095  0.43066403    -0.26500
C4063       C  0.23891934  0.14812768  0.44827445    -0.15700
C4064       C  0.23963211  0.17065613  0.45119061     0.36600
N4065       N  0.25443976  0.18105668  0.46532957    -0.90000
H4066       H  0.22336333  0.20005645  0.44433526     0.17700
H4067       H  0.22884854  0.12285206  0.42690500     0.17700
N4068       N  0.20298219  0.14309945  0.40113335    -0.89000
H4069       H  0.26991704  0.17659282  0.46096135     0.35100
H4070       H  0.25164145  0.17636449  0.48109371     0.40200
H4071       H  0.19376395  0.15430727  0.39294896     0.39800
H4072       H  0.19270744  0.13125668  0.40700410     0.34700
C4073       C  0.17328010  0.09354738  0.55766216    -0.27000
C4074       C  0.16126983  0.07810016  0.56885699    -0.15100
C4075       C  0.14753452  0.08549864  0.58533329     0.35500
C4076       C  0.14597380  0.10769835  0.59002570    -0.26500
C4077       C  0.15807407  0.12313240  0.57880217    -0.15700
C4078       C  0.17207662  0.11557355  0.56253577     0.36600
N4079       N  0.18572328  0.13013718  0.55113630    -0.90000
H4080       H  0.18449362  0.08846116  0.54548091     0.17700
H4081       H  0.13507562  0.11284396  0.60245088     0.17700
N4082       N  0.13497682  0.07053971  0.59737114    -0.89000
H4083       H  0.18241637  0.12875803  0.53476157     0.35100
H4084       H  0.20158524  0.12555151  0.55365845     0.40200
H4085       H  0.11888684  0.07460373  0.59552680     0.39800
H4086       H  0.13896038  0.07222890  0.61356397     0.34700
C4087       C  0.15428520  0.92858876  0.55752288    -0.27000
C4088       C  0.14553074  0.92117940  0.57716214    -0.15100
C4089       C  0.13926240  0.93692636  0.59219853     0.35500
C4090       C  0.14321976  0.95893941  0.58795295    -0.26500
C4091       C  0.15295810  0.96617524  0.56880687    -0.15700
C4092       C  0.15800388  0.95060583  0.55329771     0.36600
N4093       N  0.16817179  0.95686706  0.53370391    -0.90000
H4094       H  0.15902262  0.91714426  0.54543187     0.17700
H4095       H  0.13935859  0.97059190  0.60016747     0.17700
N4096       N  0.12947252  0.93064262  0.61206922    -0.89000
H4097       H  0.15869089  0.95150733  0.52097335     0.35100
H4098       H  0.18290107  0.94907798  0.53280041     0.40200
H4099       H  0.11449557  0.92411827  0.60840490     0.39800
H4100       H  0.12659595  0.94399756  0.62168687     0.34700
C4101       C  0.24742197  0.94309046  0.62225241    -0.27000
C4102       C  0.24710814  0.94859653  0.64401905    -0.15100
C4103       C  0.23074375  0.96141358  0.65212605     0.35500
C4104       C  0.21779618  0.97226944  0.63740588    -0.26500
C4105       C  0.22183864  0.97052967  0.61522745    -0.15700
C4106       C  0.23482788  0.95381143  0.60769553     0.36600
N4107       N  0.23713229  0.94862826  0.58544200    -0.90000
H4108       H  0.25949300  0.93229501  0.61611305     0.17700
H4109       H  0.20651929  0.98395409  0.64330692     0.17700
N4110       N  0.22894825  0.96517725  0.67475354    -0.89000
H4111       H  0.24646564  0.96019619  0.57775245     0.35100
H4112       H  0.22198692  0.94776358  0.57837918     0.40200
H4113       H  0.22483472  0.95061809  0.68194855     0.39800
H4114       H  0.21637338  0.97567890  0.67787125     0.34700
C4115       C  0.25313515  0.05670323  0.65646563    -0.27000
C4116       C  0.25073758  0.07876547  0.65812130    -0.15100
C4117       C  0.23408186  0.08907453  0.64706273     0.35500
C4118       C  0.22241548  0.07760386  0.63155796    -0.26500
C4119       C  0.22738601  0.05617332  0.62737286    -0.15700
C4120       C  0.24174572  0.04526698  0.64119432     0.36600
N4121       N  0.24553004  0.02272394  0.63990273    -0.90000
H4122       H  0.26569023  0.04871337  0.66537721     0.17700
H4123       H  0.21077691  0.08578105  0.62164867     0.17700
N4124       N  0.23042279  0.11146714  0.65032762    -0.89000
H4125       H  0.25316452  0.01904544  0.62552166     0.35100
H4126       H  0.23082807  0.01483813  0.64073800     0.40200
H4127       H  0.22587332  0.11348593  0.66631253     0.39800
H4128       H  0.21750334  0.11653704  0.64102150     0.34700
C4129       C  0.04768570  0.18692240  0.59634978    -0.27000
C4130       C  0.03960328  0.19406599  0.57640507    -0.15100
C4131       C  0.05455686  0.19764834  0.55973997     0.35500
C4132       C  0.07679428  0.19454520  0.56356126    -0.26500
C4133       C  0.08483747  0.18826366  0.58381697    -0.15700
C4134       C  0.06972702  0.18416628  0.60023567     0.36600
N4135       N  0.07616337  0.17700516  0.62107909    -0.90000
H4136       H  0.03672071  0.18411323  0.60950396     0.17700
H4137       H  0.08803738  0.19783964  0.55076714     0.17700
N4138       N  0.04735814  0.20562759  0.53937944    -0.89000
H4139       H  0.08553245  0.18888259  0.62823038     0.35100
H4140       H  0.08529802  0.16315445  0.61934169     0.40200
H4141       H  0.03814134  0.19361145  0.53223454     0.39800
H4142       H  0.06033224  0.20838921  0.52917902     0.34700
C4143       C  0.04067288  0.26950521  0.62061527    -0.27000
C4144       C  0.02073781  0.26240151  0.62780380    -0.15100
C4145       C  0.01344543  0.26771370  0.64845209     0.35500
C4146       C  0.02503688  0.28235309  0.66060431    -0.26500
C4147       C  0.04316531  0.29189456  0.65182688    -0.15700
C4148       C  0.05194177  0.28453121  0.63250077     0.36600
N4149       N  0.07134727  0.29357755  0.62421877    -0.90000
H4150       H  0.04641855  0.26501125  0.60488063     0.17700
H4151       H  0.01846732  0.28815713  0.67557479     0.17700
N4152       N  0.99307721  0.26046885  0.65594608    -0.89000
H4153       H  0.08214886  0.28112632  0.62167531     0.35100
H4154       H  0.06799817  0.30062516  0.60938277     0.40200
H4155       H  0.98357687  0.27393383  0.65848156     0.39800
H4156       H  0.99532269  0.25282835  0.67069270     0.34700
C4157       C  0.58542288  0.18010306  0.90710506    -0.27000
C4158       C  0.56999469  0.18345083  0.89100211    -0.15100
C4159       C  0.54939057  0.19037800  0.89764690     0.35500
C4160       C  0.54476836  0.19345640  0.91948364    -0.26500
C4161       C  0.56004759  0.19011195  0.93565697    -0.15700
C4162       C  0.58072792  0.18316007  0.92920508     0.36600
N4163       N  0.59721200  0.17991243  0.94493459    -0.90000
H4164       H  0.60127035  0.17499898  0.90243540     0.17700
H4165       H  0.52905740  0.19930345  0.92373598     0.17700
N4166       N  0.53297361  0.19573255  0.88258417    -0.89000
H4167       H  0.61163181  0.17584828  0.93756535     0.35100
H4168       H  0.59272400  0.16674918  0.95428157     0.40200
H4169       H  0.52864512  0.18209926  0.87394365     0.39800
H4170       H  0.53885660  0.20746550  0.87219015     0.34700
C4171       C  0.62668642  0.18071810  0.74600616    -0.27000
C4172       C  0.62617375  0.16782372  0.76474870    -0.15100
C4173       C  0.62987081  0.14575283  0.76226330     0.35500
C4174       C  0.63449919  0.13730955  0.74194621    -0.26500
C4175       C  0.63563470  0.15007517  0.72320599    -0.15700
C4176       C  0.63124188  0.17211108  0.72536304     0.36600
N4177       N  0.63188232  0.18578127  0.70685241    -0.90000
H4178       H  0.62329743  0.19762670  0.74738230     0.17700
H4179       H  0.63760026  0.12032397  0.74107775     0.17700
N4180       N  0.62881129  0.13156732  0.78030261    -0.89000
H4181       H  0.62879918  0.20160823  0.71120136     0.35100
H4182       H  0.61940160  0.18109292  0.69671478     0.40200
H4183       H  0.64350875  0.12379194  0.78170045     0.39800
H4184       H  0.61707575  0.12001456  0.77720794     0.34700
C4185       C  0.66419085  0.42387411  0.92329102    -0.27000
C4186       C  0.65492021  0.41691092  0.90378346    -0.15100
C4187       C  0.64694914  0.43303370  0.88989983     0.35500
C4188       C  0.64899508  0.45496144  0.89546010    -0.26500
C4189       C  0.65880013  0.46181526  0.91479172    -0.15700
C4190       C  0.66623310  0.44558231  0.92885362     0.36600
N4191       N  0.67641701  0.45038387  0.94886148    -0.90000
H4192       H  0.67036459  0.41226109  0.93459750     0.17700
H4193       H  0.64322684  0.46679848  0.88417574     0.17700
N4194       N  0.63673845  0.42780440  0.87003893    -0.89000
H4195       H  0.66610128  0.45968086  0.95810945     0.35100
H4196       H  0.69056621  0.45880519  0.94589164     0.40200
H4197       H  0.62351098  0.41805831  0.87328474     0.39800
H4198       H  0.64754364  0.41932459  0.86056844     0.34700
C4199       C  0.61820893  0.28383938  0.91644215    -0.27000
C4200       C  0.63749295  0.28668100  0.92757862    -0.15100
C4201       C  0.64561492  0.27028662  0.94064650     0.35500
C4202       C  0.63242086  0.25267623  0.94500454    -0.26500
C4203       C  0.61143870  0.25220300  0.93707373    -0.15700
C4204       C  0.60512005  0.26647561  0.92107344     0.36600
N4205       N  0.58410921  0.26507926  0.91202412    -0.90000
H4206       H  0.61251880  0.29598841  0.90541305     0.17700
H4207       H  0.63709771  0.24139692  0.95735838     0.17700
N4208       N  0.66588253  0.27272866  0.95125627    -0.89000
H4209       H  0.58573634  0.26454314  0.89537842     0.35100
H4210       H  0.57586196  0.27906995  0.91586084     0.40200
H4211       H  0.67774225  0.27225585  0.93948219     0.39800
H4212       H  0.66873627  0.25975569  0.96145130     0.34700
C4213       C  0.63975142  0.26500723  0.86664644    -0.27000
C4214       C  0.64029434  0.28386889  0.85389471    -0.15100
C4215       C  0.63370958  0.28209940  0.83239918     0.35500
C4216       C  0.62708017  0.26201662  0.82422236    -0.26500
C4217       C  0.62657086  0.24326562  0.83705260    -0.15700
C4218       C  0.63277989  0.24514276  0.85866912     0.36600
N4219       N  0.63105258  0.22750902  0.87326129    -0.90000
H4220       H  0.64443847  0.26561984  0.88334496     0.17700
H4221       H  0.62178413  0.26119126  0.80769544     0.17700
N4222       N  0.63365061  0.30053032  0.81876860    -0.89000
H4223       H  0.64055068  0.21503405  0.86760231     0.35100
H4224       H  0.61512796  0.22237422  0.87357592     0.40200
H4225       H  0.61807941  0.30267570  0.81307749     0.39800
H4226       H  0.64349188  0.29738168  0.80562436     0.34700
C4227       C  0.74510755  0.46804882  0.82918812    -0.27000
C4228       C  0.74960049  0.44709752  0.83527390    -0.15100
C4229       C  0.73850462  0.43745354  0.85243956     0.35500
C4230       C  0.72476251  0.44992477  0.86491271    -0.26500
C4231       C  0.72232236  0.47164236  0.86017479    -0.15700
C4232       C  0.73150889  0.48040519  0.84155090     0.36600
N4233       N  0.72816393  0.50234199  0.83600692    -0.90000
H4234       H  0.75334078  0.47530492  0.81570005     0.17700
H4235       H  0.71769094  0.44321749  0.87930302     0.17700
N4236       N  0.74268295  0.41572408  0.85837260    -0.89000
H4237       H  0.72177023  0.50285324  0.82052014     0.35100
H4238       H  0.74302688  0.51005798  0.83570920     0.40200
H4239       H  0.72817795  0.40735686  0.85826739     0.39800
H4240       H  0.74863474  0.41559959  0.87403244     0.34700
C4241       C  0.84050449  0.44263377  0.75793704    -0.27000
C4242       C  0.82077949  0.45076670  0.76463358    -0.15100
C4243       C  0.81292449  0.46989298  0.75593775     0.35500
C4244       C  0.82637167  0.48216424  0.74306633    -0.26500
C4245       C  0.84762614  0.47584240  0.73973569    -0.15700
C4246       C  0.85416515  0.45510950  0.74561943     0.36600
N4247       N  0.87465468  0.44663904  0.73994676    -0.90000
H4248       H  0.84629393  0.42758001  0.76431849     0.17700
H4249       H  0.82088644  0.49761464  0.73760943     0.17700
N4250       N  0.79238223  0.47814334  0.76165309    -0.89000
H4251       H  0.88668965  0.45550667  0.74743822     0.35100
H4252       H  0.87649163  0.44785483  0.72332639     0.40200
H4253       H  0.79189310  0.48029569  0.77826218     0.39800
H4254       H  0.78083272  0.46675501  0.75747695     0.34700
C4255       C  0.73934472  0.36737450  0.82413808    -0.27000
C4256       C  0.75721313  0.36527387  0.83797432    -0.15100
C4257       C  0.75350887  0.35736104  0.85883659     0.35500
C4258       C  0.73259877  0.35181609  0.86534468    -0.26500
C4259       C  0.71479181  0.35449148  0.85175646    -0.15700
C4260       C  0.71829619  0.36213988  0.83080510     0.36600
N4261       N  0.70058147  0.36427223  0.81628588    -0.90000
H4262       H  0.74169502  0.37352933  0.80807018     0.17700
H4263       H  0.73025353  0.34559348  0.88138458     0.17700
N4264       N  0.77087263  0.35491535  0.87358580    -0.89000
H4265       H  0.69438507  0.34896234  0.81352967     0.35100
H4266       H  0.70579540  0.37007121  0.80144677     0.40200
H4267       H  0.77141576  0.33888261  0.87833441     0.39800
H4268       H  0.76759343  0.36415332  0.88713871     0.34700
C4269       C  0.89012148  0.18956434  0.56363580    -0.27000
C4270       C  0.88385907  0.18282582  0.58436822    -0.15100
C4271       C  0.90046736  0.17877334  0.59933390     0.35500
C4272       C  0.92214895  0.18214825  0.59353616    -0.26500
C4273       C  0.92825049  0.18974393  0.57300562    -0.15700
C4274       C  0.91159018  0.19317810  0.55790762     0.36600
N4275       N  0.91567296  0.20068911  0.53658136    -0.90000
H4276       H  0.87808049  0.19255820  0.55151283     0.17700
H4277       H  0.93431017  0.17952703  0.60562165     0.17700
N4278       N  0.89593823  0.17182621  0.62072724    -0.89000
H4279       H  0.92656507  0.19042326  0.52922160     0.35100
H4280       H  0.92202126  0.21615241  0.53729994     0.40200
H4281       H  0.88782242  0.15720339  0.61997163     0.39800
H4282       H  0.88606823  0.18314022  0.62799554     0.34700
C4283       C  0.73766231  0.15554655  0.62425444    -0.27000
C4284       C  0.75405823  0.16113715  0.63873221    -0.15100
C4285       C  0.74898838  0.16114254  0.66081872     0.35500
C4286       C  0.72779703  0.15639025  0.66755412    -0.26500
C4287       C  0.71119355  0.15193794  0.65266114    -0.15700
C4288       C  0.71667784  0.15119761  0.63075254     0.36600
N4289       N  0.70106546  0.14587803  0.61477150    -0.90000
H4290       H  0.74091745  0.15541146  0.60728294     0.17700
H4291       H  0.72426341  0.15645955  0.68454691     0.17700
N4292       N  0.76470688  0.16652037  0.67661601    -0.89000
H4293       H  0.70632169  0.13231424  0.60656689     0.35100
H4294       H  0.70023771  0.15852708  0.60381449     0.40200
H4295       H  0.77051128  0.18187124  0.67327882     0.39800
H4296       H  0.77735496  0.15574452  0.67521168     0.34700
C4297       C  0.87354777  0.42652906  0.66267592    -0.27000
C4298       C  0.89137034  0.41308396  0.66429173    -0.15100
C4299       C  0.91163188  0.42299762  0.66813688     0.35500
C4300       C  0.91341390  0.44534586  0.67117609    -0.26500
C4301       C  0.89546008  0.45861800  0.67074388    -0.15700
C4302       C  0.87534061  0.44891029  0.66593585     0.36600
N4303       N  0.85641602  0.46167125  0.66473780    -0.90000
H4304       H  0.85792226  0.41958920  0.65974068     0.17700
H4305       H  0.92890437  0.45214639  0.67503709     0.17700
N4306       N  0.93064928  0.41038828  0.66951727    -0.89000
H4307       H  0.84555491  0.45591282  0.67612239     0.35100
H4308       H  0.84964185  0.45959267  0.64955049     0.40200
H4309       H  0.93740894  0.41271902  0.68468268     0.39800
H4310       H  0.94147551  0.41602807  0.65804852     0.34700
C4311       C  0.91144639  0.28161313  0.63796398    -0.27000
C4312       C  0.92236696  0.28411487  0.65748859    -0.15100
C4313       C  0.93654831  0.26829798  0.66461081     0.35500
C4314       C  0.94213628  0.25193827  0.65023758    -0.26500
C4315       C  0.93389820  0.25191016  0.62924092    -0.15700
C4316       C  0.91688739  0.26540898  0.62393759     0.36600
N4317       N  0.90628374  0.26415066  0.60360947    -0.90000
H4318       H  0.89958246  0.29321076  0.63297026     0.17700
H4319       H  0.95484652  0.24097446  0.65438817     0.17700
N4320       N  0.94630130  0.26981717  0.68542946    -0.89000
H4321       H  0.90009103  0.24868270  0.60194634     0.35100
H4322       H  0.91740865  0.26674749  0.59139531     0.40200
H4323       H  0.95578779  0.28362161  0.68568447     0.39800
H4324       H  0.95651934  0.25687937  0.68802121     0.34700
C4325       C  0.82903969  0.38189885  0.74637816    -0.27000
C4326       C  0.83028181  0.36945966  0.76532990    -0.15100
C4327       C  0.83723478  0.34815333  0.76332757     0.35500
C4328       C  0.84240516  0.33986290  0.74276352    -0.26500
C4329       C  0.84059053  0.35240826  0.72387125    -0.15700
C4330       C  0.83371115  0.37369786  0.72606753     0.36600
N4331       N  0.83118831  0.38725749  0.70768328    -0.90000
H4332       H  0.82388825  0.39839507  0.74703154     0.17700
H4333       H  0.84803579  0.32354816  0.74164887     0.17700
N4334       N  0.83883558  0.33480495  0.78190417    -0.89000
H4335       H  0.84080016  0.40082334  0.70972723     0.35100
H4336       H  0.81527663  0.39226833  0.70708256     0.40200
H4337       H  0.85460502  0.32945180  0.78303958     0.39800
H4338       H  0.82898086  0.32146472  0.77956432     0.34700
C4339       C  0.82570337  0.27687404  0.64464977    -0.27000
C4340       C  0.84558271  0.27721865  0.65517062    -0.15100
C4341       C  0.85477563  0.25682302  0.66036027     0.35500
C4342       C  0.84528893  0.23770562  0.65332718    -0.26500
C4343       C  0.82581005  0.23733088  0.64236196    -0.15700
C4344       C  0.81554782  0.25744141  0.63876401     0.36600
N4345       N  0.79478867  0.25891766  0.62923787    -0.90000
H4346       H  0.81777546  0.29184378  0.64112079     0.17700
H4347       H  0.85326201  0.22275797  0.65690963     0.17700
N4348       N  0.87346475  0.25445755  0.67340528    -0.89000
H4349       H  0.78396007  0.25023442  0.63860884     0.35100
H4350       H  0.79527268  0.25250414  0.61385293     0.40200
H4351       H  0.87097365  0.26184509  0.68820443     0.39800
H4352       H  0.88656392  0.26111451  0.66558407     0.34700
C4353       C  0.41357380  0.33834497  0.92617697    -0.27000
C4354       C  0.42890664  0.34244372  0.91027359    -0.15100
C4355       C  0.42129660  0.34997502  0.89010945     0.35500
C4356       C  0.39899533  0.35222782  0.88612719    -0.26500
C4357       C  0.38364300  0.34720655  0.90185311    -0.15700
C4358       C  0.39146101  0.34077016  0.92236582     0.36600
N4359       N  0.37700763  0.33651093  0.93968065    -0.90000
H4360       H  0.41869807  0.33266344  0.94177196     0.17700
H4361       H  0.39371189  0.35739711  0.87041551     0.17700
N4362       N  0.43607397  0.35485308  0.87328118    -0.89000
H4363       H  0.38096003  0.34663697  0.95241721     0.35100
H4364       H  0.37924355  0.32071635  0.94472750     0.40200
H4365       H  0.43381299  0.37079139  0.86875369     0.39800
H4366       H  0.43235713  0.34518622  0.86012307     0.34700
C4367       C  0.55199517  0.34460569  0.92131057    -0.27000
C4368       C  0.53898520  0.34131333  0.90322322    -0.15100
C4369       C  0.54879379  0.34318511  0.88265963     0.35500
C4370       C  0.57087499  0.34720358  0.88072343    -0.26500
C4371       C  0.58398356  0.34980767  0.89873208    -0.15700
C4372       C  0.57420118  0.34878093  0.91927897     0.36600
N4373       N  0.58687231  0.35100449  0.93828026    -0.90000
H4374       H  0.54515309  0.34299785  0.93718138     0.17700
H4375       H  0.57783364  0.34806215  0.86484151     0.17700
N4376       N  0.53651452  0.34064305  0.86340994    -0.89000
H4377       H  0.58522173  0.33700853  0.94734082     0.35100
H4378       H  0.58070363  0.36367547  0.94722780     0.40200
H4379       H  0.54293297  0.32792055  0.85470221     0.39800
H4380       H  0.53815596  0.35456062  0.85423174     0.34700
C4381       C  0.54145144  0.26697832  0.85943322    -0.27000
C4382       C  0.52071903  0.27242615  0.85319275    -0.15100
C4383       C  0.51295941  0.26663793  0.83278874     0.35500
C4384       C  0.52510444  0.25300530  0.82002350    -0.26500
C4385       C  0.54442334  0.24511699  0.82783885    -0.15700
C4386       C  0.55332798  0.25308755  0.84690361     0.36600
N4387       N  0.57354884  0.24544098  0.85444459    -0.90000
H4388       H  0.54757169  0.27180709  0.87497085     0.17700
H4389       H  0.51830681  0.24663711  0.80535684     0.17700
N4390       N  0.49188902  0.27250911  0.82609703    -0.89000
H4391       H  0.57123705  0.23808501  0.86933642     0.35100
H4392       H  0.58365836  0.25862372  0.85656566     0.40200
H4393       H  0.48307571  0.25848513  0.82360347     0.39800
H4394       H  0.49312059  0.28055156  0.81144079     0.34700
C4395       C  0.43882432  0.27858878  0.83719535    -0.27000
C4396       C  0.43250147  0.27840644  0.85876343    -0.15100
C4397       C  0.41643178  0.26454302  0.86581675     0.35500
C4398       C  0.40973705  0.24826686  0.85219432    -0.26500
C4399       C  0.41917570  0.24586150  0.83192080    -0.15700
C4400       C  0.43231570  0.26204910  0.82349464     0.36600
N4401       N  0.44075484  0.26036704  0.80216191    -0.90000
H4402       H  0.45107279  0.28974081  0.83197940     0.17700
H4403       H  0.39867498  0.23624318  0.85814016     0.17700
N4404       N  0.40934922  0.26530732  0.88769475    -0.89000
H4405       H  0.45088178  0.27329888  0.79884757     0.35100
H4406       H  0.42789631  0.26162304  0.79152577     0.40200
H4407       H  0.39735167  0.25391586  0.89036180     0.39800
H4408       H  0.40250727  0.28031960  0.89010886     0.34700
C4409       C  0.87672234  0.34606490  0.40789383    -0.27000
C4410       C  0.89408201  0.34398111  0.39381318    -0.15100
C4411       C  0.91451604  0.34017710  0.40330065     0.35500
C4412       C  0.91686799  0.33762914  0.42585301    -0.26500
C4413       C  0.89933079  0.33879322  0.43986062    -0.15700
C4414       C  0.87902490  0.34359831  0.43048230     0.36600
N4415       N  0.86048934  0.34559615  0.44392220    -0.90000
H4416       H  0.86104960  0.34915553  0.40121110     0.17700
H4417       H  0.93248450  0.33381054  0.43229597     0.17700
N4418       N  0.93317950  0.33878002  0.39010508    -0.89000
H4419       H  0.84684031  0.34869627  0.43476291     0.35100
H4420       H  0.86287649  0.35891423  0.45376002     0.40200
H4421       H  0.94016679  0.32381893  0.39259016     0.39800
H4422       H  0.94405033  0.35048077  0.39515519     0.34700
C4423       C  0.88405404  0.34171413  0.55994164    -0.27000
C4424       C  0.90524711  0.33959696  0.55247147    -0.15100
C4425       C  0.92187583  0.34072328  0.56798310     0.35500
C4426       C  0.91698604  0.34360327  0.58989688    -0.26500
C4427       C  0.89574014  0.34476781  0.59737683    -0.15700
C4428       C  0.87912748  0.34406308  0.58196841     0.36600
N4429       N  0.85721321  0.34566111  0.58865031    -0.90000
H4430       H  0.87100321  0.34080100  0.54855807     0.17700
H4431       H  0.93004582  0.34418571  0.60130841     0.17700
N4432       N  0.94392620  0.33894865  0.56214885    -0.89000
H4433       H  0.84690646  0.34440069  0.57550321     0.35100
H4434       H  0.85506037  0.36096750  0.59499019     0.40200
H4435       H  0.94732254  0.35037741  0.55036761     0.39800
H4436       H  0.94662359  0.32368052  0.55597559     0.34700
C4437       C  0.83391978  0.25760950  0.57250331    -0.27000
C4438       C  0.82072393  0.24444839  0.55976541    -0.15100
C4439       C  0.81820317  0.24877496  0.53790791     0.35500
C4440       C  0.83122693  0.26416621  0.52847134    -0.26500
C4441       C  0.84698328  0.27471994  0.54052051    -0.15700
C4442       C  0.84750828  0.27267207  0.56288900     0.36600
N4443       N  0.86289935  0.28441665  0.57537352    -0.90000
H4444       H  0.83528496  0.25461757  0.58957457     0.17700
H4445       H  0.83082153  0.26601845  0.51123584     0.17700
N4446       N  0.80333907  0.23681691  0.52512793    -0.89000
H4447       H  0.87813011  0.27920619  0.57098804     0.35100
H4448       H  0.86113423  0.28089409  0.59167409     0.40200
H4449       H  0.81184226  0.22923862  0.51290421     0.39800
H4450       H  0.79277106  0.24761541  0.51799167     0.34700
C4451       C  0.86337985  0.26165763  0.43583416    -0.27000
C4452       C  0.85378765  0.27181956  0.45326604    -0.15100
C4453       C  0.83132057  0.27189821  0.45521926     0.35500
C4454       C  0.81932283  0.25804174  0.44239045    -0.26500
C4455       C  0.82978970  0.24465975  0.42793944    -0.15700
C4456       C  0.85149756  0.24792411  0.42312258     0.36600
N4457       N  0.86179810  0.23604759  0.40645426    -0.90000
H4458       H  0.88052368  0.26251533  0.43349738     0.17700
H4459       H  0.80235274  0.25612931  0.44535126     0.17700
N4460       N  0.82084119  0.28460183  0.47109461    -0.89000
H4461       H  0.87440250  0.22749410  0.41329406     0.35100
H4462       H  0.86836297  0.24694582  0.39554514     0.40200
H4463       H  0.81158892  0.27443668  0.48067473     0.39800
H4464       H  0.81037908  0.29493199  0.46315161     0.34700
C4465       C  0.79679950  0.08582821  0.42641382    -0.27000
C4466       C  0.80695939  0.07029957  0.41382508    -0.15100
C4467       C  0.81905133  0.07750100  0.39591460     0.35500
C4468       C  0.82039350  0.09971497  0.39101438    -0.26500
C4469       C  0.80983726  0.11519907  0.40344666    -0.15700
C4470       C  0.79782500  0.10778187  0.42139419     0.36600
N4471       N  0.78603069  0.12237683  0.43450545    -0.90000
H4472       H  0.78702973  0.08088886  0.43989618     0.17700
H4473       H  0.82980839  0.10493319  0.37740442     0.17700
N4474       N  0.82977222  0.06226133  0.38254540    -0.89000
H4475       H  0.79145770  0.12089957  0.45029738     0.35100
H4476       H  0.76991965  0.11787103  0.43413884     0.40200
H4477       H  0.84156915  0.05493828  0.39186268     0.39800
H4478       H  0.83766208  0.06998315  0.36993453     0.34700
C4479       C  0.80167180  0.95065944  0.38334681    -0.27000
C4480       C  0.80402760  0.95941075  0.40422356    -0.15100
C4481       C  0.81177087  0.94550785  0.42034649     0.35500
C4482       C  0.81625203  0.92367410  0.41535506    -0.26500
C4483       C  0.81304419  0.91486603  0.39456582    -0.15700
C4484       C  0.80573035  0.92905321  0.37848391     0.36600
N4485       N  0.80182155  0.92209375  0.35697395    -0.90000
H4486       H  0.79581576  0.96057483  0.37037213     0.17700
H4487       H  0.82178017  0.91329490  0.42810104     0.17700
N4488       N  0.81459843  0.95329138  0.44181443    -0.89000
H4489       H  0.78973046  0.91051422  0.35715809     0.35100
H4490       H  0.81585085  0.91543921  0.35087920     0.40200
H4491       H  0.82676375  0.96480130  0.44143128     0.39800
H4492       H  0.81993182  0.94103969  0.45188866     0.34700
C4493       C  0.72911480  0.95914737  0.36614730    -0.27000
C4494       C  0.73604003  0.97896329  0.35834275    -0.15100
C4495       C  0.73207338  0.98482886  0.33689335     0.35500
C4496       C  0.71864836  0.97205251  0.32445784    -0.26500
C4497       C  0.70888361  0.95421120  0.33368708    -0.15700
C4498       C  0.71521187  0.94678285  0.35400493     0.36600
N4499       N  0.70622196  0.92758070  0.36289070    -0.90000
H4500       H  0.73279450  0.95426863  0.38243239     0.17700
H4501       H  0.71382105  0.97752589  0.30868213     0.17700
N4502       N  0.73964565  0.00473743  0.32846807    -0.89000
H4503       H  0.69831616  0.93152328  0.37709923     0.35100
H4504       H  0.71876497  0.91728720  0.36680333     0.40200
H4505       H  0.72641132  0.01387518  0.32396168     0.39800
H4506       H  0.74855731  0.00152656  0.31468626     0.34700
C4507       C  0.73138438  0.08428701  0.36646031    -0.27000
C4508       C  0.74462322  0.06757896  0.36032408    -0.15100
C4509       C  0.74495383  0.06071447  0.33883723     0.35500
C4510       C  0.72867031  0.06748969  0.32491407    -0.26500
C4511       C  0.71346170  0.08210249  0.33215123    -0.15700
C4512       C  0.71619773  0.09212002  0.35219761     0.36600
N4513       N  0.70313167  0.10979019  0.35838829    -0.90000
H4514       H  0.73158686  0.08998888  0.38286855     0.17700
H4515       H  0.72768534  0.06128201  0.30873478     0.17700
N4516       N  0.76105487  0.04602224  0.33180012    -0.89000
H4517       H  0.71319510  0.12291449  0.36103069     0.35100
H4518       H  0.69603511  0.10600314  0.37306253     0.40200
H4519       H  0.77585791  0.05365608  0.33351346     0.39800
H4520       H  0.75924262  0.04288512  0.31543714     0.34700
C4521       C  0.03801595  0.84992471  0.58882984    -0.27000
C4522       C  0.03170552  0.84324924  0.56808046    -0.15100
C4523       C  0.04795602  0.84129919  0.55246036     0.35500
C4524       C  0.06956990  0.84552920  0.55780127    -0.26500
C4525       C  0.07595060  0.85145820  0.57870347    -0.15700
C4526       C  0.05973117  0.85398994  0.59427212     0.36600
N4527       N  0.06527780  0.86064290  0.61560886    -0.90000
H4528       H  0.02598452  0.85138834  0.60119924     0.17700
H4529       H  0.08158055  0.84350097  0.54547897     0.17700
N4530       N  0.04275574  0.83463763  0.53112645    -0.89000
H4531       H  0.05163851  0.86154254  0.62522607     0.35100
H4532       H  0.07148593  0.87616373  0.61457390     0.40200
H4533       H  0.05124995  0.82065676  0.52784124     0.39800
H4534       H  0.04799002  0.84650842  0.52051206     0.34700
C4535       C  0.91283846  0.84772863  0.59018882    -0.27000
C4536       C  0.92016310  0.83932885  0.57045560    -0.15100
C4537       C  0.90437682  0.83422911  0.55494973     0.35500
C4538       C  0.88242339  0.83661358  0.55976249    -0.26500
C4539       C  0.87507320  0.84391937  0.57994262    -0.15700
C4540       C  0.89090423  0.85005129  0.59505237     0.36600
N4541       N  0.88539060  0.85802476  0.61580855    -0.90000
H4542       H  0.92437333  0.85172295  0.60253992     0.17700
H4543       H  0.87094236  0.83203870  0.54757269     0.17700
N4544       N  0.90991572  0.82542948  0.53456750    -0.89000
H4545       H  0.87606725  0.84654399  0.62368628     0.35100
H4546       H  0.87652803  0.87202849  0.61388930     0.40200
H4547       H  0.91756674  0.81087824  0.53715136     0.39800
H4548       H  0.92043872  0.83595144  0.52687863     0.34700
C4549       C  0.91858328  0.75747683  0.60924593    -0.27000
C4550       C  0.93357310  0.77116114  0.61872778    -0.15100
C4551       C  0.93436047  0.77284671  0.64138370     0.35500
C4552       C  0.92393356  0.75735813  0.65370392    -0.26500
C4553       C  0.91288829  0.74073664  0.64354467    -0.15700
C4554       C  0.90854611  0.74182751  0.62138319     0.36600
N4555       N  0.89549584  0.72589945  0.61103317    -0.90000
H4556       H  0.91655132  0.75732300  0.59197842     0.17700
H4557       H  0.92601787  0.75727456  0.67095447     0.17700
N4558       N  0.94593039  0.78941261  0.65226080    -0.89000
H4559       H  0.89522043  0.72816838  0.59444045     0.35100
H4560       H  0.87985237  0.72752431  0.61659454     0.40200
H4561       H  0.94058914  0.80417768  0.64653200     0.39800
H4562       H  0.96221437  0.78799167  0.64914811     0.34700
C4563       C  0.00588512  0.76669705  0.64299698    -0.27000
C4564       C  0.01793744  0.77922276  0.62873924    -0.15100
C4565       C  0.03994314  0.78209956  0.63189483     0.35500
C4566       C  0.05009777  0.76920656  0.64714133    -0.26500
C4567       C  0.03831563  0.75356907  0.65839033    -0.15700
C4568       C  0.01596066  0.75389542  0.65801273     0.36600
N4569       N  0.00360852  0.74011636  0.67164806    -0.90000
H4570       H  0.98879456  0.76496001  0.64088233     0.17700
H4571       H  0.06737201  0.76962520  0.64830392     0.17700
N4572       N  0.05200616  0.79644383  0.61848062    -0.89000
H4573       H  0.99424980  0.73014783  0.66196496     0.35100
H4574       H  0.99331528  0.74964967  0.68068508     0.40200
H4575       H  0.05156157  0.79048225  0.60283811     0.39800
H4576       H  0.06807375  0.79662770  0.62311633     0.34700
C4577       C  0.05063393  0.45536598  0.81385025    -0.27000
C4578       C  0.03629857  0.43852876  0.81770851    -0.15100
C4579       C  0.04494654  0.41870666  0.82490617     0.35500
C4580       C  0.06739406  0.41587729  0.82666899    -0.26500
C4581       C  0.08185799  0.43238306  0.82166395    -0.15700
C4582       C  0.07301156  0.45259817  0.81576508     0.36600
N4583       N  0.08663288  0.47053077  0.81128838    -0.90000
H4584       H  0.04455114  0.47055931  0.80817186     0.17700
H4585       H  0.07359893  0.40050776  0.83165802     0.17700
N4586       N  0.03083000  0.40123670  0.83005220    -0.89000
H4587       H  0.08253163  0.48293266  0.82170225     0.35100
H4588       H  0.08365250  0.47564914  0.79560270     0.40200
H4589       H  0.02163565  0.40589410  0.84321231     0.39800
H4590       H  0.03949825  0.38780312  0.83488593     0.34700
C4591       C  0.92131604  0.41878534  0.82741089    -0.27000
C4592       C  0.92622745  0.44029898  0.82218329    -0.15100
C4593       C  0.90888894  0.45462806  0.82041580     0.35500
C4594       C  0.88764025  0.44741201  0.82361898    -0.26500
C4595       C  0.88263901  0.42579214  0.82806400    -0.15700
C4596       C  0.90002356  0.41140529  0.82998864     0.36600
N4597       N  0.89668983  0.38921540  0.83465418    -0.90000
H4598       H  0.93412189  0.40723966  0.82863300     0.17700
H4599       H  0.87481948  0.45889893  0.82198758     0.17700
N4600       N  0.91264433  0.47660490  0.81508441    -0.89000
H4601       H  0.88781516  0.38241431  0.82219028     0.35100
H4602       H  0.88795914  0.38796446  0.84888530     0.40200
H4603       H  0.90630432  0.48603426  0.82733174     0.39800
H4604       H  0.90430069  0.48003589  0.80096254     0.34700
C4605       C  0.91270433  0.39762683  0.74509879    -0.27000
C4606       C  0.92763229  0.39151121  0.76041479    -0.15100
C4607       C  0.93275158  0.36974579  0.76310617     0.35500
C4608       C  0.92692206  0.35527800  0.74711837    -0.26500
C4609       C  0.91483237  0.36235478  0.72966243    -0.15700
C4610       C  0.90580255  0.38293452  0.72990742     0.36600
N4611       N  0.89019576  0.38921841  0.71442350    -0.90000
H4612       H  0.90817289  0.41427864  0.74353287     0.17700
H4613       H  0.93213220  0.33879768  0.74806335     0.17700
N4614       N  0.94445171  0.36229476  0.78139986    -0.89000
H4615       H  0.89581367  0.40311550  0.70698130     0.35100
H4616       H  0.87636126  0.39335954  0.72276981     0.40200
H4617       H  0.93558886  0.36605743  0.79507125     0.39800
H4618       H  0.95896778  0.37049308  0.78243105     0.34700
C4619       C  0.03656699  0.38991822  0.74860295    -0.27000
C4620       C  0.01444766  0.38679202  0.74844659    -0.15100
C4621       C  0.00519166  0.36976276  0.73689971     0.35500
C4622       C  0.01809811  0.35728531  0.72407445    -0.26500
C4623       C  0.03994140  0.36168606  0.72259818    -0.15700
C4624       C  0.04954884  0.37721495  0.73580797     0.36600
N4625       N  0.07208792  0.38129309  0.73486129    -0.90000
H4626       H  0.04356885  0.40300717  0.75762404     0.17700
H4627       H  0.01082277  0.34507854  0.71408122     0.17700
N4628       N  0.98264722  0.36580213  0.73661779    -0.89000
H4629       H  0.07828575  0.37997178  0.75037670     0.35100
H4630       H  0.07449962  0.39698481  0.72962188     0.40200
H4631       H  0.97481567  0.37959453  0.73140921     0.39800
H4632       H  0.97787672  0.36223637  0.75222253     0.34700
C4633       C  0.54531538  0.08396251  0.81034728    -0.27000
C4634       C  0.56123558  0.06879483  0.81432794    -0.15100
C4635       C  0.58103129  0.07631873  0.82273598     0.35500
C4636       C  0.58472396  0.09848017  0.82609452    -0.26500
C4637       C  0.56915145  0.11383849  0.82104232    -0.15700
C4638       C  0.54900585  0.10608878  0.81342011     0.36600
N4639       N  0.53210773  0.12061618  0.80826973    -0.90000
H4640       H  0.53017513  0.07877556  0.80363557     0.17700
H4641       H  0.60013224  0.10367206  0.83213305     0.17700
N4642       N  0.59766941  0.06145110  0.82772002    -0.89000
H4643       H  0.51876487  0.11654501  0.81751741     0.35100
H4644       H  0.52810849  0.11857232  0.79211507     0.40200
H4645       H  0.60156796  0.06317660  0.84392965     0.39800
H4646       H  0.61113853  0.06557173  0.81867693     0.34700
C4647       C  0.53599021  0.94393350  0.80915225    -0.27000
C4648       C  0.55042933  0.95945882  0.81667335    -0.15100
C4649       C  0.56945526  0.95205892  0.82665593     0.35500
C4650       C  0.57338953  0.92978608  0.82898800    -0.26500
C4651       C  0.55898927  0.91426402  0.82112184    -0.15700
C4652       C  0.54008629  0.92184679  0.81089884     0.36600
N4653       N  0.52495233  0.90725821  0.80164686    -0.90000
H4654       H  0.52156385  0.94890626  0.80094182     0.17700
H4655       H  0.58802445  0.92467283  0.83670436     0.17700
N4656       N  0.58521342  0.96702667  0.83398032    -0.89000
H4657       H  0.52360963  0.91072054  0.78528928     0.35100
H4658       H  0.51007576  0.90986931  0.80877482     0.40200
H4659       H  0.59951195  0.96387303  0.82594106     0.39800
H4660       H  0.58772888  0.96436454  0.85033820     0.34700
C4661       C  0.59220267  0.94268149  0.74171176    -0.27000
C4662       C  0.60047064  0.95705376  0.75668965    -0.15100
C4663       C  0.62239384  0.96235018  0.75631548     0.35500
C4664       C  0.63394110  0.95823749  0.73772802    -0.26500
C4665       C  0.62391013  0.94820975  0.72037770    -0.15700
C4666       C  0.60370231  0.93854514  0.72310493     0.36600
N4667       N  0.59453343  0.92532418  0.70674185    -0.90000
H4668       H  0.57556344  0.93781469  0.74256456     0.17700
H4669       H  0.65009851  0.96438729  0.73624767     0.17700
N4670       N  0.63221199  0.97493571  0.77290867    -0.89000
H4671       H  0.57990909  0.93197032  0.70217611     0.35100
H4672       H  0.59148382  0.91025411  0.71337901     0.40200
H4673       H  0.64522640  0.96625535  0.77875298     0.39800
H4674       H  0.62179149  0.97662507  0.78586310     0.34700
C4675       C  0.62416369  0.07678968  0.72715396    -0.27000
C4676       C  0.64226475  0.06607379  0.71973657    -0.15100
C4677       C  0.64724606  0.04550699  0.72731024     0.35500
C4678       C  0.63291157  0.03524853  0.74104590    -0.26500
C4679       C  0.61353190  0.04512945  0.74637188    -0.15700
C4680       C  0.60964178  0.06640934  0.74039915     0.36600
N4681       N  0.59032135  0.07695751  0.74663205    -0.90000
H4682       H  0.62021360  0.09249872  0.72095190     0.17700
H4683       H  0.63582513  0.01878371  0.74564178     0.17700
N4684       N  0.66558796  0.03412551  0.71980412    -0.89000
H4685       H  0.58209152  0.08140549  0.73272807     0.35100
H4686       H  0.59448755  0.09091569  0.75487404     0.40200
H4687       H  0.67918102  0.04322633  0.72338604     0.39800
H4688       H  0.66450907  0.03265916  0.70314175     0.34700
C4689       C  0.80731312  0.61332481  0.05467571    -0.27000
C4690       C  0.80183337  0.59278830  0.04686352    -0.15100
C4691       C  0.80048253  0.57592639  0.06213092     0.35500
C4692       C  0.80448437  0.57993147  0.08407559    -0.26500
C4693       C  0.80918859  0.60061164  0.09186712    -0.15700
C4694       C  0.81069393  0.61737176  0.07674996     0.36600
N4695       N  0.81578817  0.63861516  0.08365969    -0.90000
H4696       H  0.80830231  0.62669227  0.04364208     0.17700
H4697       H  0.80312955  0.56673632  0.09528860     0.17700
N4698       N  0.79497840  0.55453338  0.05602725    -0.89000
H4699       H  0.80336056  0.64869494  0.07889056     0.35100
H4700       H  0.82969222  0.64352594  0.07574081     0.40200
H4701       H  0.80557692  0.54952512  0.04412416     0.39800
H4702       H  0.77941728  0.55441261  0.04993068     0.34700
C4703       C  0.81629283  0.62036372  0.92912967    -0.27000
C4704       C  0.80799136  0.60045244  0.93613979    -0.15100
C4705       C  0.80474919  0.58449424  0.92048704     0.35500
C4706       C  0.80860506  0.58901809  0.89853585    -0.26500
C4707       C  0.81525035  0.60948342  0.89142426    -0.15700
C4708       C  0.81979787  0.62503367  0.90727615     0.36600
N4709       N  0.82808630  0.64571380  0.90178438    -0.90000
H4710       H  0.81915786  0.63294443  0.94072205     0.17700
H4711       H  0.80527894  0.57665011  0.88683832     0.17700
N4712       N  0.79630185  0.56405618  0.92655117    -0.89000
H4713       H  0.81680727  0.65374791  0.89244636     0.35100
H4714       H  0.84202749  0.64368262  0.89279949     0.40200
H4715       H  0.80705020  0.55234495  0.92151272     0.39800
H4716       H  0.78191214  0.56169826  0.91832430     0.34700
C4717       C  0.73169827  0.64957480  0.92947357    -0.27000
C4718       C  0.74030678  0.65550668  0.94925528    -0.15100
C4719       C  0.73471926  0.67522057  0.95866774     0.35500
C4720       C  0.71795437  0.68692349  0.94979447    -0.26500
C4721       C  0.70664480  0.67847807  0.93246331    -0.15700
C4722       C  0.71417293  0.66042251  0.92145807     0.36600
N4723       N  0.70297446  0.65204506  0.90323820    -0.90000
H4724       H  0.73636501  0.63465822  0.92199068     0.17700
H4725       H  0.71224964  0.70111721  0.95789710     0.17700
N4726       N  0.74407813  0.68199231  0.97852268    -0.89000
H4727       H  0.69767763  0.63660417  0.90700605     0.35100
H4728       H  0.71386089  0.65077307  0.89061546     0.40200
H4729       H  0.73192213  0.68312237  0.98995660     0.39800
H4730       H  0.75054854  0.69727087  0.97625725     0.34700
C4731       C  0.73858207  0.66847045  0.03811127    -0.27000
C4732       C  0.73556754  0.64618881  0.03802498    -0.15100
C4733       C  0.71740155  0.63719088  0.04765314     0.35500
C4734       C  0.70188258  0.65046753  0.05589176    -0.26500
C4735       C  0.70319920  0.67270541  0.05323534    -0.15700
C4736       C  0.72227215  0.68203552  0.04556398     0.36600
N4737       N  0.72430753  0.70485359  0.04371571    -0.90000
H4738       H  0.75240516  0.67526643  0.03010835     0.17700
H4739       H  0.68768870  0.64304008  0.06261967     0.17700
N4740       N  0.71294182  0.61476240  0.04584467    -0.89000
H4741       H  0.73897381  0.70891417  0.03675525     0.35100
H4742       H  0.72460573  0.71108771  0.05925126     0.40200
H4743       H  0.69964974  0.61301941  0.03581252     0.39800
H4744       H  0.70829550  0.60896437  0.06080217     0.34700
C4745       C  0.40642970  0.84087142  0.05809116    -0.27000
C4746       C  0.38886901  0.83939010  0.04409102    -0.15100
C4747       C  0.36820667  0.84355659  0.05279653     0.35500
C4748       C  0.36570254  0.84830537  0.07489373    -0.26500
C4749       C  0.38322791  0.84939964  0.08894590    -0.15700
C4750       C  0.40383120  0.84558445  0.08017371     0.36600
N4751       N  0.42223423  0.84535099  0.09383549    -0.90000
H4752       H  0.42227653  0.83730958  0.05213234     0.17700
H4753       H  0.34983731  0.85110747  0.08119885     0.17700
N4754       N  0.34961940  0.84272004  0.03923182    -0.89000
H4755       H  0.43320671  0.85657774  0.08797943     0.35100
H4756       H  0.42921254  0.83021843  0.09283856     0.40200
H4757       H  0.35100005  0.85510843  0.02803203     0.39800
H4758       H  0.33572750  0.84566895  0.04802584     0.34700
C4759       C  0.37847903  0.84897567  0.92802170    -0.27000
C4760       C  0.39892801  0.84186428  0.93461522    -0.15100
C4761       C  0.41447399  0.83879706  0.91837939     0.35500
C4762       C  0.40911989  0.84187766  0.89673212    -0.26500
C4763       C  0.38837645  0.84775140  0.88995173    -0.15700
C4764       C  0.37307929  0.85187654  0.90615939     0.36600
N4765       N  0.35180367  0.85849959  0.90105618    -0.90000
H4766       H  0.36615475  0.85151016  0.93992055     0.17700
H4767       H  0.42154060  0.83907356  0.88499246     0.17700
N4768       N  0.43587122  0.83217095  0.92308126    -0.89000
H4769       H  0.34473953  0.84687956  0.89129059     0.35100
H4770       H  0.35264458  0.87293583  0.89261919     0.40200
H4771       H  0.43554300  0.81672131  0.92947713     0.39800
H4772       H  0.44257934  0.84278904  0.93415833     0.34700
C4773       C  0.33984887  0.74519732  0.91403269    -0.27000
C4774       C  0.31948567  0.74377558  0.92340458    -0.15100
C4775       C  0.31181795  0.76060737  0.93606842     0.35500
C4776       C  0.32619140  0.77687547  0.94207340    -0.26500
C4777       C  0.34770016  0.77600259  0.93561015    -0.15700
C4778       C  0.35407395  0.76117516  0.92017848     0.36600
N4779       N  0.37574153  0.76081934  0.91276975    -0.90000
H4780       H  0.34543682  0.73269996  0.90340530     0.17700
H4781       H  0.32144243  0.78841546  0.95409021     0.17700
N4782       N  0.29048743  0.75990977  0.94453800    -0.89000
H4783       H  0.37550786  0.76197825  0.89604665     0.35100
H4784       H  0.38235391  0.74602113  0.91684821     0.40200
H4785       H  0.27995762  0.76122868  0.93158189     0.39800
H4786       H  0.28774159  0.77318363  0.95430998     0.34700
C4787       C  0.32081483  0.76185636  0.01273881    -0.27000
C4788       C  0.33994536  0.76848083  0.02246607    -0.15100
C4789       C  0.34256793  0.76669383  0.04478970     0.35500
C4790       C  0.32706744  0.75596138  0.05659628    -0.26500
C4791       C  0.30944145  0.74653296  0.04633226    -0.15700
C4792       C  0.30542603  0.75069364  0.02449012     0.36600
N4793       N  0.28715794  0.74210379  0.01339628    -0.90000
H4794       H  0.31857786  0.76384807  0.99560479     0.17700
H4795       H  0.33011730  0.75273593  0.07341817     0.17700
N4796       N  0.36102531  0.77494155  0.05568856    -0.89000
H4797       H  0.27862897  0.75501089  0.00708355     0.35100
H4798       H  0.27676512  0.73439487  0.02399548     0.40200
H4799       H  0.36239729  0.79125589  0.05221259     0.39800
H4800       H  0.37462436  0.76715841  0.05001654     0.34700
C4801       C  0.81242639  0.07261829  0.59094337    -0.27000
C4802       C  0.80842603  0.06748372  0.56919912    -0.15100
C4803       C  0.80907086  0.08458336  0.55425984     0.35500
C4804       C  0.81317387  0.10586122  0.56131516    -0.26500
C4805       C  0.81639466  0.11108748  0.58315609    -0.15700
C4806       C  0.81606778  0.09386057  0.59801343     0.36600
N4807       N  0.81940670  0.09728620  0.62045782    -0.90000
H4808       H  0.81189343  0.06004192  0.60289997     0.17700
H4809       H  0.81331846  0.11862957  0.54955693     0.17700
N4810       N  0.80533050  0.08043184  0.53192052    -0.89000
H4811       H  0.80715790  0.10698198  0.62626513     0.35100
H4812       H  0.83404252  0.10515033  0.62253172     0.40200
H4813       H  0.81782953  0.07084134  0.52644902     0.39800
H4814       H  0.80601368  0.09461820  0.52304393     0.34700
C4815       C  0.80548400  0.91957977  0.55845736    -0.27000
C4816       C  0.80984151  0.91251365  0.57958604    -0.15100
C4817       C  0.81301612  0.92814253  0.59548784     0.35500
C4818       C  0.81120285  0.94999702  0.59036137    -0.26500
C4819       C  0.80545477  0.95719461  0.56963514    -0.15700
C4820       C  0.80295645  0.94164093  0.55339497     0.36600
N4821       N  0.79647304  0.94806583  0.53225653    -0.90000
H4822       H  0.80303305  0.90776689  0.54600389     0.17700
H4823       H  0.81317587  0.96148659  0.60321138     0.17700
N4824       N  0.81790056  0.92195592  0.61705609    -0.89000
H4825       H  0.79454762  0.93470229  0.52238008     0.35100
H4826       H  0.80892358  0.95713995  0.52568738     0.40200
H4827       H  0.80603416  0.92808958  0.62707904     0.39800
H4828       H  0.83245021  0.92904792  0.62134066     0.34700
C4829       C  0.70523033  0.98665126  0.61664684    -0.27000
C4830       C  0.72671805  0.98087838  0.61840370    -0.15100
C4831       C  0.73418436  0.96960786  0.63633621     0.35500
C4832       C  0.71933059  0.96270861  0.65159337    -0.26500
C4833       C  0.69748433  0.96711890  0.64897829    -0.15700
C4834       C  0.69050848  0.98030893  0.63202287     0.36600
N4835       N  0.66846374  0.98642976  0.62988629    -0.90000
H4836       H  0.69995358  0.99642257  0.60327728     0.17700
H4837       H  0.72462834  0.95321095  0.66510370     0.17700
N4838       N  0.75651660  0.96476738  0.63859996    -0.89000
H4839       H  0.66604120  0.99524229  0.61583245     0.35100
H4840       H  0.66498457  0.99674127  0.64257577     0.40200
H4841       H  0.76075574  0.95465602  0.62598016     0.39800
H4842       H  0.75923554  0.95624298  0.65277408     0.34700
C4843       C  0.73401039  0.04237827  0.63868199    -0.27000
C4844       C  0.74347678  0.05517473  0.62284484    -0.15100
C4845       C  0.74299353  0.07752966  0.62438881     0.35500
C4846       C  0.72976887  0.08672436  0.63972378    -0.26500
C4847       C  0.71725999  0.07358653  0.65312093    -0.15700
C4848       C  0.72074910  0.05149656  0.65389333     0.36600
N4849       N  0.70977816  0.03825225  0.66913225    -0.90000
H4850       H  0.73519009  0.02510436  0.63795103     0.17700
H4851       H  0.72755453  0.10390848  0.63958077     0.17700
N4852       N  0.75433158  0.09096070  0.60964389    -0.89000
H4853       H  0.72125396  0.03002687  0.67808677     0.35100
H4854       H  0.70071568  0.02695724  0.66070289     0.40200
H4855       H  0.74980742  0.08669614  0.59412251     0.39800
H4856       H  0.77061400  0.08768695  0.61126436     0.34700
C4857       C  0.04609747  0.83730594  0.42650910    -0.27000
C4858       C  0.03149510  0.83845541  0.40953701    -0.15100
C4859       C  0.03963407  0.84466908  0.38907885     0.35500
C4860       C  0.06169418  0.84918419  0.38607576    -0.26500
C4861       C  0.07647630  0.84735974  0.40292591    -0.15700
C4862       C  0.06816659  0.84142045  0.42349716     0.36600
N4863       N  0.08207125  0.83908674  0.44161426    -0.90000
H4864       H  0.04057217  0.83211143  0.44214172     0.17700
H4865       H  0.06731354  0.85357039  0.37024049     0.17700
N4866       N  0.02556763  0.84614952  0.37100793    -0.89000
H4867       H  0.08062263  0.82342888  0.44736714     0.35100
H4868       H  0.07689020  0.84945718  0.45364449     0.40200
H4869       H  0.03101055  0.83562365  0.35922507     0.39800
H4870       H  0.02656702  0.86169201  0.36487306     0.34700
C4871       C  0.91600925  0.84738112  0.39745514    -0.27000
C4872       C  0.92182107  0.83856183  0.41749147    -0.15100
C4873       C  0.90515166  0.83227720  0.43145272     0.35500
C4874       C  0.88364021  0.83428868  0.42507966    -0.26500
C4875       C  0.87770452  0.84255763  0.40483762    -0.15700
C4876       C  0.89443964  0.84945212  0.39104125     0.36600
N4877       N  0.89023839  0.85843569  0.37034434    -0.90000
H4878       H  0.92837629  0.85214932  0.38625999     0.17700
H4879       H  0.87145767  0.82901836  0.43626035     0.17700
N4880       N  0.90984975  0.82333599  0.45208174    -0.89000
H4881       H  0.88089924  0.87211671  0.37226429     0.35100
H4882       H  0.88183746  0.84719511  0.36120873     0.40200
H4883       H  0.90312316  0.80801051  0.45280696     0.39800
H4884       H  0.90245027  0.83275734  0.46372100     0.34700
C4885       C  0.90844934  0.76160332  0.37376819    -0.27000
C4886       C  0.92456020  0.77528656  0.36677595    -0.15100
C4887       C  0.93045486  0.77589413  0.34504891     0.35500
C4888       C  0.92323962  0.75959835  0.33147734    -0.26500
C4889       C  0.90921476  0.74402283  0.33935077    -0.15700
C4890       C  0.90008117  0.74628776  0.36001564     0.36600
N4891       N  0.88286333  0.73316368  0.36785170    -0.90000
H4892       H  0.90360962  0.76166038  0.39046095     0.17700
H4893       H  0.92889106  0.75872149  0.31508382     0.17700
N4894       N  0.94489850  0.79211777  0.33744081    -0.89000
H4895       H  0.88866880  0.72421822  0.38074541     0.35100
H4896       H  0.87722888  0.72252939  0.35632776     0.40200
H4897       H  0.93740398  0.80688189  0.33949587     0.39800
H4898       H  0.94738752  0.79040000  0.32096077     0.34700
C4899       C  0.03463860  0.76688383  0.36853772    -0.27000
C4900       C  0.01410163  0.77202696  0.36141023    -0.15100
C4901       C  0.00790392  0.76796284  0.34010086     0.35500
C4902       C  0.02130994  0.75601923  0.32710872    -0.26500
C4903       C  0.03997102  0.74757393  0.33577849    -0.15700
C4904       C  0.04762629  0.75425813  0.35584440     0.36600
N4905       N  0.06758807  0.74653726  0.36402985    -0.90000
H4906       H  0.03964523  0.77069359  0.38474107     0.17700
H4907       H  0.01565625  0.75081297  0.31151730     0.17700
N4908       N  0.98710444  0.77357369  0.33248193    -0.89000
H4909       H  0.06457656  0.73812056  0.37822187     0.35100
H4910       H  0.07715135  0.75975879  0.36781502     0.40200
H4911       H  0.97904745  0.75951907  0.32820817     0.39800
H4912       H  0.98896692  0.78289446  0.31867316     0.34700
C4913       C  0.04879049  0.58073750  0.81482179    -0.27000
C4914       C  0.03440114  0.59766206  0.81796551    -0.15100
C4915       C  0.04294437  0.61738484  0.82548669     0.35500
C4916       C  0.06518056  0.62006136  0.82872435    -0.26500
C4917       C  0.07964583  0.60340530  0.82492066    -0.15700
C4918       C  0.07110572  0.58342424  0.81812404     0.36600
N4919       N  0.08514681  0.56603557  0.81339793    -0.90000
H4920       H  0.04290078  0.56567273  0.80855275     0.17700
H4921       H  0.07115467  0.63541543  0.83415641     0.17700
N4922       N  0.02903945  0.63503081  0.82966114    -0.89000
H4923       H  0.08297169  0.56179795  0.79732903     0.35100
H4924       H  0.08064281  0.55298289  0.82289385     0.40200
H4925       H  0.03385054  0.64786510  0.82001025     0.39800
H4926       H  0.03101237  0.63952472  0.84567996     0.34700
C4927       C  0.91816046  0.61421153  0.82596660    -0.27000
C4928       C  0.92387877  0.59453443  0.81631747    -0.15100
C4929       C  0.90711606  0.58124145  0.80901464     0.35500
C4930       C  0.88573882  0.58782428  0.81085678    -0.26500
C4931       C  0.87983271  0.60762022  0.82006113    -0.15700
C4932       C  0.89648196  0.62073825  0.82797856     0.36600
N4933       N  0.89160686  0.64071467  0.83794238    -0.90000
H4934       H  0.93061263  0.62492706  0.83155593     0.17700
H4935       H  0.87361034  0.57703272  0.80472516     0.17700
N4936       N  0.91157342  0.56107320  0.79914868    -0.89000
H4937       H  0.89945975  0.65282517  0.82942339     0.35100
H4938       H  0.89784818  0.64043584  0.85349521     0.40200
H4939       H  0.90513905  0.56125693  0.78367234     0.39800
H4940       H  0.90375522  0.54910190  0.80789605     0.34700
C4941       C  0.94441697  0.66595949  0.74370520    -0.27000
C4942       C  0.93333275  0.64877578  0.75299770    -0.15100
C4943       C  0.91134604  0.64635233  0.74978263     0.35500
C4944       C  0.90120930  0.65971022  0.73496204    -0.26500
C4945       C  0.91322177  0.67481936  0.72327352    -0.15700
C4946       C  0.93457172  0.67898675  0.72857308     0.36600
N4947       N  0.94636753  0.69554768  0.71771163    -0.90000
H4948       H  0.96135939  0.66772817  0.74654679     0.17700
H4949       H  0.88451678  0.65692201  0.73113304     0.17700
N4950       N  0.89986788  0.62931871  0.76004399    -0.89000
H4951       H  0.96208792  0.69625865  0.72339226     0.35100
H4952       H  0.93928577  0.71014706  0.72160379     0.40200
H4953       H  0.89320954  0.61959833  0.74817171     0.39800
H4954       H  0.88732301  0.63602775  0.76876946     0.34700
C4955       C  0.01114855  0.67059028  0.74802044    -0.27000
C4956       C  0.01876086  0.64953847  0.74967998    -0.15100
C4957       C  0.03926134  0.64446479  0.74229500     0.35500
C4958       C  0.05058093  0.65973061  0.73065701    -0.26500
C4959       C  0.04100728  0.67932079  0.72551972    -0.15700
C4960       C  0.02176967  0.68538226  0.73521074     0.36600
N4961       N  0.01163972  0.70534011  0.73042576    -0.90000
H4962       H  0.99579352  0.67488507  0.75461406     0.17700
H4963       H  0.06566421  0.65529975  0.72336837     0.17700
N4964       N  0.04805383  0.62360335  0.74560317    -0.89000
H4965       H  0.00866757  0.70608979  0.71394234     0.35100
H4966       H  0.02223166  0.71767562  0.73443575     0.40200
H4967       H  0.06253184  0.62541019  0.75380239     0.39800
H4968       H  0.05132375  0.61694111  0.73060021     0.34700
C4969       C  0.37807767  0.07905446  0.82236424    -0.27000
C4970       C  0.39860648  0.07103086  0.81719191    -0.15100
C4971       C  0.41583237  0.08561273  0.81696867     0.35500
C4972       C  0.41192699  0.10766643  0.82022337    -0.26500
C4973       C  0.39106706  0.11593683  0.82334689    -0.15700
C4974       C  0.37407171  0.10115826  0.82508684     0.36600
N4975       N  0.35264444  0.10855366  0.82858273    -0.90000
H4976       H  0.36462663  0.06809264  0.82281861     0.17700
H4977       H  0.42535047  0.11862696  0.81936956     0.17700
N4978       N  0.43699986  0.07830656  0.81201869    -0.89000
H4979       H  0.34205895  0.09563434  0.82990085     0.35100
H4980       H  0.34800333  0.11708820  0.81492919     0.40200
H4981       H  0.44188888  0.06835797  0.82457124     0.39800
H4982       H  0.44776856  0.09113447  0.81163171     0.34700
C4983       C  0.40763393  0.92313577  0.81646448    -0.27000
C4984       C  0.38620860  0.91745071  0.82088509    -0.15100
C4985       C  0.37098556  0.93412140  0.82126760     0.35500
C4986       C  0.37738788  0.95550323  0.81736811    -0.26500
C4987       C  0.39876741  0.96118946  0.81234193    -0.15700
C4988       C  0.41394210  0.94437023  0.81184550     0.36600
N4989       N  0.43589567  0.94813429  0.80653759    -0.90000
H4990       H  0.41967660  0.91074311  0.81590894     0.17700
H4991       H  0.36519485  0.96774621  0.81764017     0.17700
N4992       N  0.34893769  0.92996565  0.82585706    -0.89000
H4993       H  0.44207331  0.95966966  0.81698099     0.35100
H4994       H  0.43676720  0.95381723  0.79079677     0.40200
H4995       H  0.34794697  0.92218094  0.84067355     0.39800
H4996       H  0.34280319  0.91985707  0.81401192     0.34700
C4997       C  0.34681989  0.95461447  0.74507587    -0.27000
C4998       C  0.34545100  0.97690147  0.74465611    -0.15100
C4999       C  0.32785451  0.98697813  0.73475919     0.35500
C5000       C  0.31349363  0.97482515  0.72309655    -0.26500
C5001       C  0.31657698  0.95287979  0.72090826    -0.15700
C5002       C  0.33245785  0.94238554  0.73301543     0.36600
N5003       N  0.33522108  0.91970581  0.73158562    -0.90000
H5004       H  0.36002023  0.94687687  0.75318245     0.17700
H5005       H  0.30081145  0.98279059  0.71435180     0.17700
N5006       N  0.32427015  0.00951096  0.73612219    -0.89000
H5007       H  0.33419722  0.91333600  0.74706284     0.35100
H5008       H  0.35059198  0.91671986  0.72577543     0.40200
H5009       H  0.33684219  0.01773050  0.72877752     0.39800
H5010       H  0.32371915  0.01346108  0.75234875     0.34700
C5011       C  0.36121345  0.08257675  0.73510690    -0.27000
C5012       C  0.35301872  0.06576181  0.74753175    -0.15100
C5013       C  0.33082690  0.06476522  0.75187205     0.35500
C5014       C  0.31700507  0.07695807  0.73927200    -0.26500
C5015       C  0.32538983  0.09136206  0.72444310    -0.15700
C5016       C  0.34737752  0.09592312  0.72391640     0.36600
N5017       N  0.35554536  0.11294729  0.71071647    -0.90000
H5018       H  0.37831284  0.08442838  0.73296567     0.17700
H5019       H  0.29986835  0.07453724  0.74025500     0.17700
N5020       N  0.32240430  0.05077551  0.76811537    -0.89000
H5021       H  0.37222486  0.11367176  0.71163237     0.35100
H5022       H  0.34989976  0.12730604  0.71705629     0.40200
H5023       H  0.30574766  0.05188328  0.76882683     0.39800
H5024       H  0.32821652  0.05616976  0.78287774     0.34700
C5025       C  0.81419484  0.42781119  0.05326988    -0.27000
C5026       C  0.80699811  0.44844526  0.04737892    -0.15100
C5027       C  0.80317456  0.46315314  0.06407407     0.35500
C5028       C  0.80560664  0.45688894  0.08571048    -0.26500
C5029       C  0.81197733  0.43600328  0.09173014    -0.15700
C5030       C  0.81672674  0.42155795  0.07502112     0.36600
N5031       N  0.82388070  0.40039867  0.07992192    -0.90000
H5032       H  0.81723013  0.41606528  0.04091292     0.17700
H5033       H  0.80220228  0.46867888  0.09792632     0.17700
N5034       N  0.79652148  0.48452652  0.05926777    -0.89000
H5035       H  0.83878427  0.39825565  0.07269100     0.35100
H5036       H  0.81314995  0.38953981  0.07302753     0.40200
H5037       H  0.80765513  0.49510274  0.06596395     0.39800
H5038       H  0.78178922  0.48712559  0.06670233     0.34700
C5039       C  0.81120447  0.41603533  0.93322123    -0.27000
C5040       C  0.80661600  0.43743437  0.93910674    -0.15100
C5041       C  0.80759325  0.45312020  0.92280392     0.35500
C5042       C  0.81124809  0.44698541  0.90138285    -0.26500
C5043       C  0.81416517  0.42536165  0.89528979    -0.15700
C5044       C  0.81495382  0.40991445  0.91181373     0.36600
N5045       N  0.81854782  0.38776547  0.90737936    -0.90000
H5046       H  0.81090287  0.40357839  0.94531979     0.17700
H5047       H  0.81115902  0.45938242  0.88922215     0.17700
N5048       N  0.80402693  0.47527356  0.92721301    -0.89000
H5049       H  0.83350565  0.38625942  0.90010826     0.35100
H5050       H  0.80676379  0.38241988  0.89674413     0.40200
H5051       H  0.81525477  0.48030578  0.93857756     0.39800
H5052       H  0.78870544  0.47698848  0.93358841     0.34700
C5053       C  0.72340696  0.37337047  0.92803923    -0.27000
C5054       C  0.71046244  0.35886641  0.93934020    -0.15100
C5055       C  0.71103370  0.35811922  0.96184085     0.35500
C5056       C  0.72310943  0.37327450  0.97284083    -0.26500
C5057       C  0.73401667  0.38924489  0.96150629    -0.15700
C5058       C  0.73515272  0.38886271  0.93906168     0.36600
N5059       N  0.74752674  0.40463851  0.92769806    -0.90000
H5060       H  0.72298999  0.37376030  0.91067130     0.17700
H5061       H  0.72278100  0.37346912  0.99022524     0.17700
N5062       N  0.69875043  0.34256337  0.97346446    -0.89000
H5063       H  0.74651154  0.40207507  0.91117470     0.35100
H5064       H  0.76355235  0.40243751  0.93189461     0.40200
H5065       H  0.68828121  0.35067991  0.98362743     0.39800
H5066       H  0.70923813  0.33369551  0.98300124     0.34700
C5067       C  0.74480902  0.37836103  0.03669603    -0.27000
C5068       C  0.74266995  0.39911377  0.04488756    -0.15100
C5069       C  0.72831653  0.40354792  0.06145324     0.35500
C5070       C  0.71464835  0.38731709  0.06825282    -0.26500
C5071       C  0.71471748  0.36752157  0.05780149    -0.15700
C5072       C  0.73028659  0.36246282  0.04259434     0.36600
N5073       N  0.73065929  0.34172156  0.03269377    -0.90000
H5074       H  0.75587660  0.37537499  0.02368217     0.17700
H5075       H  0.70284741  0.39056400  0.08053438     0.17700
N5076       N  0.72639334  0.42490794  0.06969345    -0.89000
H5077       H  0.74323674  0.34078327  0.02171427     0.35100
H5078       H  0.71655369  0.33998325  0.02385197     0.40200
H5079       H  0.74084267  0.42878089  0.07720756     0.39800
H5080       H  0.71454734  0.42553743  0.08149148     0.34700
C5081       C  0.57317459  0.85441765  0.05434291    -0.27000
C5082       C  0.55262451  0.84656646  0.04872337    -0.15100
C5083       C  0.53791094  0.84307394  0.06552657     0.35500
C5084       C  0.54440792  0.84629950  0.08717570    -0.26500
C5085       C  0.56557532  0.85231730  0.09270379    -0.15700
C5086       C  0.57987134  0.85677810  0.07576593     0.36600
N5087       N  0.60139886  0.86358809  0.07971929    -0.90000
H5088       H  0.58487948  0.85729430  0.04185343     0.17700
H5089       H  0.53309583  0.84306103  0.09992388     0.17700
N5090       N  0.51695737  0.83489803  0.06075454    -0.89000
H5091       H  0.60936304  0.85148118  0.08803269     0.35100
H5092       H  0.60102803  0.87730081  0.08927318     0.40200
H5093       H  0.50890669  0.84662919  0.05197406     0.39800
H5094       H  0.50825207  0.83255588  0.07486887     0.34700
C5095       C  0.53580111  0.83583641  0.92198638    -0.27000
C5096       C  0.55134076  0.83924525  0.93793475    -0.15100
C5097       C  0.57209906  0.84555217  0.93089360     0.35500
C5098       C  0.57663028  0.84844810  0.90877030    -0.26500
C5099       C  0.56100498  0.84530897  0.89287563    -0.15700
C5100       C  0.54027363  0.83866154  0.89994274     0.36600
N5101       N  0.52354419  0.83339417  0.88517030    -0.90000
H5102       H  0.52001815  0.83031801  0.92659735     0.17700
H5103       H  0.59259649  0.85327458  0.90403441     0.17700
N5104       N  0.58902148  0.84853216  0.94607758    -0.89000
H5105       H  0.52883717  0.82109350  0.87526299     0.35100
H5106       H  0.51974490  0.84683654  0.87600415     0.40200
H5107       H  0.59484868  0.86414322  0.94442317     0.39800
H5108       H  0.60135566  0.83799195  0.94220772     0.34700
C5109       C  0.60424672  0.77339092  0.93465031    -0.27000
C5110       C  0.60557727  0.77388344  0.95692388    -0.15100
C5111       C  0.62215065  0.76340748  0.96787574     0.35500
C5112       C  0.63571149  0.75014164  0.95657992    -0.26500
C5113       C  0.63280421  0.74753643  0.93460236    -0.15700
C5114       C  0.61781474  0.76001580  0.92325235     0.36600
N5115       N  0.61499374  0.75764758  0.90057814    -0.90000
H5116       H  0.59143493  0.78162894  0.92636934     0.17700
H5117       H  0.64768085  0.74096770  0.96513494     0.17700
N5118       N  0.62450018  0.76547609  0.99061024    -0.89000
H5119       H  0.61678587  0.77272804  0.89353222     0.35100
H5120       H  0.59934229  0.75245988  0.89770019     0.40200
H5121       H  0.63983338  0.77143622  0.99364520     0.39800
H5122       H  0.62332337  0.75025681  0.99750013     0.34700
C5123       C  0.62076643  0.77951802  0.03965440    -0.27000
C5124       C  0.59889237  0.77555452  0.04317646    -0.15100
C5125       C  0.59251189  0.76073098  0.05904079     0.35500
C5126       C  0.60789794  0.74715814  0.06764237    -0.26500
C5127       C  0.62906477  0.74851478  0.06063735    -0.15700
C5128       C  0.63598467  0.76566022  0.04809158     0.36600
N5129       N  0.65816910  0.76826414  0.04306166    -0.90000
H5130       H  0.62595938  0.79176890  0.02848818     0.17700
H5131       H  0.60317906  0.73473156  0.07881092     0.17700
N5132       N  0.57043304  0.75848866  0.06511962    -0.89000
H5133       H  0.66294047  0.78346540  0.04818080     0.35100
H5134       H  0.65990052  0.76764877  0.02642016     0.40200
H5135       H  0.56581081  0.77280666  0.07235707     0.39800
H5136       H  0.56857994  0.74646221  0.07665661     0.34700
C5137       C  0.65710524  0.45235963  0.05813112    -0.27000
C5138       C  0.65968467  0.46556214  0.07611284    -0.15100
C5139       C  0.65726448  0.45599527  0.09672630     0.35500
C5140       C  0.65370632  0.43373247  0.09887303    -0.26500
C5141       C  0.65263603  0.42035189  0.08089586    -0.15700
C5142       C  0.65366265  0.43008863  0.06030047     0.36600
N5143       N  0.65129629  0.41737959  0.04135888    -0.90000
H5144       H  0.65871340  0.45914640  0.04221720     0.17700
H5145       H  0.65265196  0.42680653  0.11477521     0.17700
N5146       N  0.65871653  0.46877126  0.11571644    -0.89000
H5147       H  0.66508549  0.41927081  0.03207809     0.35100
H5148       H  0.63836012  0.42332968  0.03259363     0.40200
H5149       H  0.67115878  0.46280161  0.12517098     0.39800
H5150       H  0.64446471  0.46697222  0.12428155     0.34700
C5151       C  0.64625506  0.57998479  0.09078760    -0.27000
C5152       C  0.65004504  0.57378398  0.06932619    -0.15100
C5153       C  0.64898151  0.58997008  0.05348132     0.35500
C5154       C  0.64464060  0.61143633  0.05920276    -0.26500
C5155       C  0.64169084  0.61778824  0.08070446    -0.15700
C5156       C  0.64245234  0.60160104  0.09657020     0.36600
N5157       N  0.63945850  0.60695077  0.11866429    -0.90000
H5158       H  0.64715092  0.56811884  0.10342833     0.17700
H5159       H  0.64432130  0.62339633  0.04661815     0.17700
N5160       N  0.65258471  0.58482047  0.03142986    -0.89000
H5161       H  0.65305361  0.60213328  0.12712599     0.35100
H5162       H  0.62643788  0.59813178  0.12442787     0.40200
H5163       H  0.66551590  0.59395726  0.02597298     0.39800
H5164       H  0.63905822  0.58931075  0.02268605     0.34700
C5165       C  0.71165216  0.56583306  0.13921697    -0.27000
C5166       C  0.71374974  0.57606239  0.11922072    -0.15100
C5167       C  0.72963599  0.59165820  0.11636070     0.35500
C5168       C  0.74618038  0.59270965  0.13093667    -0.26500
C5169       C  0.74659485  0.57890244  0.14863655    -0.15700
C5170       C  0.72855125  0.56653454  0.15383080     0.36600
N5171       N  0.72804011  0.55292398  0.17230739    -0.90000
H5172       H  0.69908992  0.55407702  0.14167135     0.17700
H5173       H  0.75970129  0.60302925  0.12738032     0.17700
N5174       N  0.73075547  0.60459745  0.09749254    -0.89000
H5175       H  0.73007664  0.56246403  0.18590430     0.35100
H5176       H  0.74089666  0.54233434  0.17140799     0.40200
H5177       H  0.71650288  0.61319511  0.09643561     0.39800
H5178       H  0.73217917  0.59461033  0.08417617     0.34700
C5179       C  0.72856074  0.48438821  0.13671721    -0.27000
C5180       C  0.73869647  0.49741897  0.12153563    -0.15100
C5181       C  0.76101701  0.50029637  0.12195117     0.35500
C5182       C  0.77305342  0.48851899  0.13654115    -0.26500
C5183       C  0.76312012  0.47406447  0.15058662    -0.15700
C5184       C  0.74065829  0.47260775  0.15140255     0.36600
N5185       N  0.73033463  0.45900425  0.16685803    -0.90000
H5186       H  0.71129726  0.48283219  0.13658326     0.17700
H5187       H  0.79032972  0.48982320  0.13614252     0.17700
N5188       N  0.77132250  0.51492105  0.10737500    -0.89000
H5189       H  0.71372379  0.45966898  0.16512477     0.35100
H5190       H  0.73388383  0.46503148  0.18207815     0.40200
H5191       H  0.78788879  0.51485328  0.10961885     0.39800
H5192       H  0.76613261  0.53033490  0.11115873     0.34700
C5193       C  0.41091601  0.07758006  0.66810678    -0.27000
C5194       C  0.42721292  0.09281222  0.66495095    -0.15100
C5195       C  0.42073570  0.11388008  0.65926959     0.35500
C5196       C  0.39871280  0.11921126  0.65747320    -0.26500
C5197       C  0.38240588  0.10406376  0.66119280    -0.15700
C5198       C  0.38898167  0.08280854  0.66613593     0.36600
N5199       N  0.37345141  0.06616697  0.66910993    -0.90000
H5200       H  0.41516285  0.06136597  0.67248410     0.17700
H5201       H  0.39440275  0.13552057  0.65357101     0.17700
N5202       N  0.43641337  0.13028520  0.65590545    -0.89000
H5203       H  0.37652275  0.05409639  0.65796535     0.35100
H5204       H  0.37547933  0.05976454  0.68447509     0.40200
H5205       H  0.43339298  0.14267952  0.66669928     0.39800
H5206       H  0.43440582  0.13631112  0.64039352     0.34700
C5207       C  0.55292663  0.07548728  0.66718806    -0.27000
C5208       C  0.53836063  0.09189473  0.66231878    -0.15100
C5209       C  0.54673243  0.11090603  0.65289437     0.35500
C5210       C  0.56908744  0.11368404  0.65021157    -0.26500
C5211       C  0.58375177  0.09776974  0.65610590    -0.15700
C5212       C  0.57524884  0.07815209  0.66417954     0.36600
N5213       N  0.58891710  0.06108660  0.67085988    -0.90000
H5214       H  0.54711089  0.06096701  0.67473149     0.17700
H5215       H  0.57513873  0.12857858  0.64365313     0.17700
N5216       N  0.53243306  0.12769633  0.64651391    -0.89000
H5217       H  0.59927912  0.06688938  0.68265632     0.35100
H5218       H  0.59783135  0.05596994  0.65769651     0.40200
H5219       H  0.52275277  0.12168168  0.63423258     0.39800
H5220       H  0.54092179  0.14060544  0.64001915     0.34700
C5221       C  0.54402969  0.13909543  0.73846937    -0.27000
C5222       C  0.52406309  0.14590392  0.73111919    -0.15100
C5223       C  0.51686062  0.16674466  0.73555756     0.35500
C5224       C  0.52829792  0.17930827  0.74995894    -0.26500
C5225       C  0.54695300  0.17139015  0.75913215    -0.15700
C5226       C  0.55561462  0.15180359  0.75255960     0.36600
N5227       N  0.57523054  0.14407879  0.76150179    -0.90000
H5228       H  0.54978494  0.12320569  0.73469217     0.17700
H5229       H  0.52208277  0.19472258  0.75479704     0.17700
N5230       N  0.49715902  0.17450046  0.72696892    -0.89000
H5231       H  0.58568000  0.14100503  0.74882518     0.35100
H5232       H  0.57209402  0.12958415  0.76930285     0.40200
H5233       H  0.50039489  0.18860011  0.71851447     0.39800
H5234       H  0.48712071  0.17828445  0.73979492     0.34700
C5235       C  0.41964758  0.13432566  0.74222789    -0.27000
C5236       C  0.43485861  0.14230720  0.72798668    -0.15100
C5237       C  0.43953355  0.16430735  0.72729413     0.35500
C5238       C  0.43169876  0.17748315  0.74360372    -0.26500
C5239       C  0.41858607  0.16878639  0.75953128    -0.15700
C5240       C  0.41108960  0.14762288  0.75782616     0.36600
N5241       N  0.39540270  0.13938279  0.77235661    -0.90000
H5242       H  0.41585074  0.11738156  0.74245261     0.17700
H5243       H  0.43619337  0.19422854  0.74422929     0.17700
N5244       N  0.45331259  0.17271084  0.71089798    -0.89000
H5245       H  0.40177618  0.12577465  0.77965564     0.35100
H5246       H  0.38212910  0.13451298  0.76337867     0.40200
H5247       H  0.45520164  0.18923064  0.71273889     0.39800
H5248       H  0.44563347  0.17040020  0.69618773     0.34700
C5249       C  0.04454254  0.69258689  0.42264841    -0.27000
C5250       C  0.06074693  0.68966810  0.43796139    -0.15100
C5251       C  0.08121087  0.68316072  0.43037990     0.35500
C5252       C  0.08527161  0.68093184  0.40821244    -0.26500
C5253       C  0.06928430  0.68453943  0.39293894    -0.15700
C5254       C  0.04859216  0.69009328  0.40043194     0.36600
N5255       N  0.03180578  0.69436899  0.38541579    -0.90000
H5256       H  0.02899088  0.69815867  0.42776459     0.17700
H5257       H  0.10108997  0.67630954  0.40295230     0.17700
N5258       N  0.09825541  0.67919403  0.44520925    -0.89000
H5259       H  0.01900550  0.68414061  0.38889572     0.35100
H5260       H  0.02669676  0.71010217  0.38770735     0.40200
H5261       H  0.11091121  0.68952470  0.44147629     0.39800
H5262       H  0.10350287  0.66350514  0.44296859     0.34700
C5263       C  0.08027835  0.68302119  0.57978669    -0.27000
C5264       C  0.06547372  0.69084950  0.59481285    -0.15100
C5265       C  0.04603516  0.69964591  0.58649231     0.35500
C5266       C  0.04238015  0.70074125  0.56429599    -0.26500
C5267       C  0.05747816  0.69373116  0.54931033    -0.15700
C5268       C  0.07657817  0.68447637  0.55737711     0.36600
N5269       N  0.09254244  0.67677456  0.54292951    -0.90000
H5270       H  0.09508253  0.67603029  0.58539252     0.17700
H5271       H  0.02775199  0.70816467  0.55875451     0.17700
N5272       N  0.02953288  0.70808413  0.59992211    -0.89000
H5273       H  0.09508401  0.66058906  0.54625472     0.35100
H5274       H  0.10677516  0.68504208  0.54602485     0.40200
H5275       H  0.03561485  0.72092608  0.60877413     0.39800
H5276       H  0.02387981  0.69602047  0.61008305     0.34700
C5277       C  0.12099337  0.75910667  0.54747525    -0.27000
C5278       C  0.11526312  0.76356870  0.52628318    -0.15100
C5279       C  0.12732976  0.77833355  0.51410586     0.35500
C5280       C  0.14171877  0.79167336  0.52446512    -0.26500
C5281       C  0.14439682  0.78987206  0.54649756    -0.15700
C5282       C  0.13604053  0.77219805  0.55773596     0.36600
N5283       N  0.14133550  0.76894767  0.57988240    -0.90000
H5284       H  0.11241482  0.74696837  0.55647430     0.17700
H5285       H  0.14896561  0.80486880  0.51575766     0.17700
N5286       N  0.12399544  0.78073619  0.49151612    -0.89000
H5287       H  0.15776033  0.76606947  0.58073178     0.35100
H5288       H  0.13380567  0.75514452  0.58567374     0.40200
H5289       H  0.13869068  0.77839530  0.48394226     0.39800
H5290       H  0.11921000  0.79645796  0.48848583     0.34700
C5291       C  0.10833604  0.79236901  0.42118232    -0.27000
C5292       C  0.12972039  0.79094617  0.42738549    -0.15100
C5293       C  0.13747512  0.77270262  0.43766262     0.35500
C5294       C  0.12268589  0.75801414  0.44558050    -0.26500
C5295       C  0.10067226  0.76220685  0.44374928    -0.15700
C5296       C  0.09352831  0.77799794  0.42920198     0.36600
N5297       N  0.07164440  0.78017974  0.42267440    -0.90000
H5298       H  0.10298834  0.80515680  0.41078626     0.17700
H5299       H  0.12836925  0.74484910  0.45532983     0.17700
N5300       N  0.16002073  0.76991984  0.44106944    -0.89000
H5301       H  0.06248451  0.78624540  0.43521516     0.35100
H5302       H  0.06579612  0.76516815  0.41812337     0.40200
H5303       H  0.16717086  0.76825762  0.42602633     0.39800
H5304       H  0.16291406  0.75568396  0.44937995     0.34700
C5305       C  0.41026017  0.68872796  0.09127204    -0.27000
C5306       C  0.41735291  0.69115189  0.06988166    -0.15100
C5307       C  0.40158368  0.69060368  0.05359989     0.35500
C5308       C  0.37968914  0.68789113  0.05886446    -0.26500
C5309       C  0.37254516  0.68633145  0.08030508    -0.15700
C5310       C  0.38827774  0.68684613  0.09657895     0.36600
N5311       N  0.38210327  0.68553949  0.11862876    -0.90000
H5312       H  0.42179568  0.68923775  0.10422223     0.17700
H5313       H  0.36810008  0.68761390  0.04594585     0.17700
N5314       N  0.40762601  0.69293720  0.03158357    -0.89000
H5315       H  0.38771244  0.69927894  0.12638347     0.35100
H5316       H  0.38971760  0.67232291  0.12545589     0.40200
H5317       H  0.39965031  0.70621976  0.02531605     0.39800
H5318       H  0.40234779  0.67939040  0.02328825     0.34700
C5319       C  0.53754206  0.69508140  0.09840265    -0.27000
C5320       C  0.52865721  0.69704377  0.07751601    -0.15100
C5321       C  0.54293795  0.69508404  0.06012356     0.35500
C5322       C  0.56506123  0.69145484  0.06380266    -0.26500
C5323       C  0.57393690  0.68978493  0.08468454    -0.15700
C5324       C  0.55968865  0.69162851  0.10206714     0.36600
N5325       N  0.56768580  0.69103445  0.12356479    -0.90000
H5326       H  0.52729313  0.69688468  0.11225905     0.17700
H5327       H  0.57548611  0.69030001  0.05000293     0.17700
N5328       N  0.53532250  0.69761743  0.03862889    -0.89000
H5329       H  0.55975443  0.67874179  0.13173835     0.35100
H5330       H  0.56380563  0.70549826  0.13096325     0.40200
H5331       H  0.53905670  0.68374643  0.03011126     0.39800
H5332       H  0.54361966  0.71038820  0.03162472     0.34700
C5333       C  0.52788421  0.76806078  0.11784856    -0.27000
C5334       C  0.50724141  0.76390746  0.12539717    -0.15100
C5335       C  0.50143373  0.76989386  0.14640295     0.35500
C5336       C  0.51557377  0.78221283  0.15848886    -0.26500
C5337       C  0.53503187  0.78877781  0.14964989    -0.15700
C5338       C  0.54182077  0.78063080  0.12971136     0.36600
N5339       N  0.56231559  0.78567124  0.12072579    -0.90000
H5340       H  0.53260217  0.76287221  0.10196241     0.17700
H5341       H  0.51044907  0.78846282  0.17384009     0.17700
N5342       N  0.48076498  0.76530383  0.15510242    -0.89000
H5343       H  0.57407173  0.78058443  0.13144887     0.35100
H5344       H  0.56367516  0.80219868  0.11865679     0.40200
H5345       H  0.47887506  0.74870502  0.15561110     0.39800
H5346       H  0.46915368  0.77181465  0.14497456     0.34700
C5347       C  0.40113751  0.76690759  0.11278550    -0.27000
C5348       C  0.41709840  0.75322298  0.11999770    -0.15100
C5349       C  0.42294285  0.75305365  0.14180765     0.35500
C5350       C  0.41675872  0.77023628  0.15478269    -0.26500
C5351       C  0.40443832  0.78660956  0.14591717    -0.15700
C5352       C  0.39465951  0.78374798  0.12572412     0.36600
N5353       N  0.37949858  0.79888779  0.11767589    -0.90000
H5354       H  0.39609862  0.76649393  0.09614714     0.17700
H5355       H  0.42334768  0.77196435  0.17076110     0.17700
N5356       N  0.43736315  0.73706183  0.14971330    -0.89000
H5357       H  0.36535628  0.79063752  0.11415345     0.35100
H5358       H  0.38544256  0.80517438  0.10332272     0.40200
H5359       H  0.42959761  0.72228135  0.14843354     0.39800
H5360       H  0.44036676  0.73944069  0.16603153     0.34700
C5361       C  0.04662490  0.45023432  0.68102541    -0.27000
C5362       C  0.05440924  0.46598082  0.66705162    -0.15100
C5363       C  0.06898248  0.45967723  0.65083331     0.35500
C5364       C  0.07552255  0.43790205  0.64928677    -0.26500
C5365       C  0.06787645  0.42223528  0.66369360    -0.15700
C5366       C  0.05329807  0.42890282  0.67979473     0.36600
N5367       N  0.04543687  0.41412640  0.69554588    -0.90000
H5368       H  0.03592740  0.45464756  0.69392837     0.17700
H5369       H  0.08626874  0.43311817  0.63658775     0.17700
N5370       N  0.07693246  0.47530641  0.63590343    -0.89000
H5371       H  0.02876252  0.41364163  0.69443814     0.35100
H5372       H  0.04942961  0.42003599  0.71070466     0.40200
H5373       H  0.06389471  0.48092380  0.62706537     0.39800
H5374       H  0.08732279  0.46818735  0.62494016     0.34700
C5375       C  0.08152553  0.58394367  0.66604294    -0.27000
C5376       C  0.06069716  0.57618440  0.67051419    -0.15100
C5377       C  0.04400052  0.59131260  0.67080485     0.35500
C5378       C  0.04833784  0.61330251  0.66671756    -0.26500
C5379       C  0.06930322  0.62104155  0.66289171    -0.15700
C5380       C  0.08600298  0.60588725  0.66242530     0.36600
N5381       N  0.10759189  0.61276133  0.65842438    -0.90000
H5382       H  0.09472485  0.57279415  0.66587415     0.17700
H5383       H  0.03523302  0.62454573  0.66742662     0.17700
N5384       N  0.02277876  0.58470161  0.67631944    -0.89000
H5385       H  0.10820244  0.61868760  0.64275147     0.35100
H5386       H  0.11809029  0.59981110  0.65905107     0.40200
H5387       H  0.01260671  0.58902170  0.66374521     0.39800
H5388       H  0.01812436  0.59316813  0.68996969     0.34700
C5389       C  0.13241476  0.54482449  0.74027366    -0.27000
C5390       C  0.11246435  0.55437025  0.73657549    -0.15100
C5391       C  0.10878507  0.57564904  0.74236739     0.35500
C5392       C  0.12419312  0.58629499  0.75430171    -0.26500
C5393       C  0.14232465  0.57529042  0.76136530    -0.15700
C5394       C  0.14736467  0.55507543  0.75315022     0.36600
N5395       N  0.16626491  0.54384284  0.75951150    -0.90000
H5396       H  0.13537351  0.52848082  0.73535705     0.17700
H5397       H  0.12057674  0.60203621  0.76059422     0.17700
N5398       N  0.08887927  0.58582365  0.73753078    -0.89000
H5399       H  0.16608626  0.54184066  0.77615399     0.35100
H5400       H  0.17949297  0.55329665  0.75549378     0.40200
H5401       H  0.09215024  0.59978897  0.72886833     0.39800
H5402       H  0.08172543  0.59017508  0.75201233     0.34700
C5403       C  0.12665190  0.47707189  0.72979951    -0.27000
C5404       C  0.10562814  0.46921865  0.73126941    -0.15100
C5405       C  0.10016179  0.45443267  0.74723002     0.35500
C5406       C  0.11511697  0.44934832  0.76288636    -0.26500
C5407       C  0.13520754  0.45928380  0.76298574    -0.15700
C5408       C  0.14165635  0.47222194  0.74576530     0.36600
N5409       N  0.16291527  0.48099777  0.74510079    -0.90000
H5410       H  0.13060352  0.48884713  0.71763571     0.17700
H5411       H  0.11076936  0.43810266  0.77539422     0.17700
N5412       N  0.07880353  0.44618525  0.74862795    -0.89000
H5413       H  0.16485953  0.49059235  0.73148829     0.35100
H5414       H  0.17354139  0.46824338  0.74348679     0.40200
H5415       H  0.07240670  0.45076242  0.76339440     0.39800
H5416       H  0.07964402  0.42950888  0.74848290     0.34700
C5417       C  0.66247107  0.08171197  0.41956032    -0.27000
C5418       C  0.65924371  0.09860416  0.43393400    -0.15100
C5419       C  0.65219945  0.11846149  0.42530282     0.35500
C5420       C  0.64956808  0.12113618  0.40284259    -0.26500
C5421       C  0.65381456  0.10455868  0.38827559    -0.15700
C5422       C  0.66003160  0.08435311  0.39719719     0.36600
N5423       N  0.66437383  0.06604753  0.38414865    -0.90000
H5424       H  0.66811286  0.06649301  0.42562832     0.17700
H5425       H  0.64459039  0.13653287  0.39667270     0.17700
N5426       N  0.64801948  0.13610684  0.43940302    -0.89000
H5427       H  0.67750390  0.06928468  0.37431395     0.35100
H5428       H  0.65090171  0.06258176  0.37483676     0.40200
H5429       H  0.63512898  0.13175710  0.44915483     0.39800
H5430       H  0.64322287  0.14957492  0.43071290     0.34700
C5431       C  0.67305050  0.08009761  0.56047223    -0.27000
C5432       C  0.65996329  0.09043766  0.54540836    -0.15100
C5433       C  0.64571011  0.10617137  0.55327069     0.35500
C5434       C  0.64438343  0.11058329  0.57565160    -0.26500
C5435       C  0.65731496  0.09989629  0.59079622    -0.15700
C5436       C  0.67219342  0.08464674  0.58252787     0.36600
N5437       N  0.68739554  0.07380499  0.59585179    -0.90000
H5438       H  0.68482193  0.06866924  0.55500820     0.17700
H5439       H  0.63297215  0.12231932  0.58117596     0.17700
N5440       N  0.63242075  0.11772431  0.53863730    -0.89000
H5441       H  0.67944647  0.06324543  0.60612658     0.35100
H5442       H  0.69608415  0.08511157  0.60463649     0.40200
H5443       H  0.63580965  0.13401798  0.54037273     0.39800
H5444       H  0.61649751  0.11519371  0.54306825     0.34700
C5445       C  0.72087121  0.16319496  0.53954526    -0.27000
C5446       C  0.72060330  0.14119788  0.54401284    -0.15100
C5447       C  0.73435567  0.13278077  0.55960047     0.35500
C5448       C  0.75075241  0.14549232  0.56749998    -0.26500
C5449       C  0.75304757  0.16677569  0.56066513    -0.15700
C5450       C  0.73707950  0.17620223  0.54787519     0.36600
N5451       N  0.73808526  0.19818500  0.54148329    -0.90000
H5452       H  0.71020940  0.16968656  0.52748764     0.17700
H5453       H  0.76249870  0.13835439  0.57810671     0.17700
N5454       N  0.73307112  0.11087162  0.56616346    -0.89000
H5455       H  0.75258145  0.20086996  0.53358041     0.35100
H5456       H  0.73773057  0.20762693  0.55528606     0.40200
H5457       H  0.73569501  0.10105554  0.55293763     0.39800
H5458       H  0.71763084  0.10795667  0.57189398     0.34700
C5459       C  0.73785496  0.16758040  0.46656831    -0.27000
C5460       C  0.72840548  0.15010807  0.45618734    -0.15100
C5461       C  0.72998231  0.14756974  0.43397530     0.35500
C5462       C  0.74262252  0.16176433  0.42242343    -0.26500
C5463       C  0.75426799  0.17766430  0.43315954    -0.15700
C5464       C  0.75122218  0.18139406  0.45515687     0.36600
N5465       N  0.76253798  0.19836942  0.46585050    -0.90000
H5466       H  0.73627459  0.16932325  0.48379067     0.17700
H5467       H  0.74494805  0.15904023  0.40541758     0.17700
N5468       N  0.71967757  0.12997687  0.42341690    -0.89000
H5469       H  0.75862723  0.19867732  0.48214331     0.35100
H5470       H  0.75725743  0.21281931  0.45930638     0.40200
H5471       H  0.73140766  0.12089853  0.41577499     0.39800
H5472       H  0.70953193  0.13615619  0.41162340     0.34700
loop_ 
_geom_bond_atom_site_label_1 
_geom_bond_atom_site_label_2 
_geom_bond_distance 
_geom_bond_site_symmetry_2 
_ccdc_geom_bond_type 
O1          Cr19   1.989       .  S
O1            C9   1.259       .  A
O2          Cr19   1.964       .  S
O2            C3   1.254       .  A
C3            O4   1.266       .  A
C3         C5446   1.447       .  S
O4          Cr20   1.995       .  S
O5          Cr20   1.959       .  S
O5            C6   1.256       .  A
C6            O7   1.274       .  A
C6          C248   1.462       .  S
O7          Cr21   2.034       .  S
O8          Cr21   2.022       .  S
O8            C9   1.265       .  A
C9         C5432   1.518       .  S
O10         Cr19   1.962       .  S
O10          C18   1.256       .  A
O11         Cr19   1.982       .  S
O11          C12   1.259       .  A
C12          O13   1.259       .  A
C12        C5460   1.436       .  S
O13         Cr20   1.959       .  S
O14         Cr20   2.017       .  S
O14          C15   1.261       .  A
C15          O16   1.266       .  A
C15         C389   1.481       .  S
O16         Cr21   2.000       .  S
O17         Cr21   2.064       .  S
O17          C18   1.284       .  A
C18        C5418   1.515       .  S
Cr19         O22   1.794       .  S
Cr20         O22   1.762       .  S
Cr21         O22   1.762       .  S
O23         Cr41   1.953       .  S
O23          C31   1.257       .  A
O24         Cr41   1.966       .  S
O24          C25   1.252       .  A
C25          O26   1.260       .  A
C25        C5390   1.442       .  S
O26         Cr42   1.971       .  S
O27         Cr42   1.985       .  S
O27          C28   1.256       .  A
C28          O29   1.262       .  A
C28         C204   1.468       .  S
O29         Cr43   1.987       .  S
O30         Cr43   2.077       .  S
O30          C31   1.288       .  A
C31        C5376   1.520       .  S
O32         Cr41   1.983       .  S
O32          C40   1.252       .  A
O33         Cr41   1.968       .  S
O33          C34   1.259       .  A
C34          O35   1.264       .  A
C34        C5404   1.440       .  S
O35         Cr42   1.975       .  S
O36         Cr42   1.971       .  S
O36          C37   1.260       .  A
C37          O38   1.279       .  A
C37         C345   1.484       .  S
O38         Cr43   2.044       .  S
O39         Cr43   2.012       .  S
O39          C40   1.260       .  A
C40        C5362   1.504       .  S
Cr41         O44   1.797       .  S
Cr42         O44   1.769       .  S
Cr43         O44   1.765       .  S
O45         Cr63   1.964       .  S
O45          C53   1.256       .  A
O46         Cr63   1.990       .  S
O46          C47   1.258       .  A
C47          O48   1.257       .  A
C47        C5334   1.453       .  S
O48         Cr64   1.960       .  S
O49         Cr64   1.999       .  S
O49          C50   1.259       .  A
C50          O51   1.267       .  A
C50         C138   1.475       .  S
O51         Cr65   1.991       .  S
O52         Cr65   2.078       .  S
O52          C53   1.287       .  A
C53        C5320   1.528       .  S
O54         Cr63   1.989       .  S
O54          C62   1.260       .  A
O55         Cr63   1.954       .  S
O55          C56   1.250       .  A
C56          O57   1.268       .  A
C56        C5348   1.447       .  S
O57         Cr64   1.999       .  S
O58         Cr64   1.974       .  S
O58          C59   1.262       .  A
C59          O60   1.274       .  A
C59         C279   1.477       .  S
O60         Cr65   2.028       .  S
O61         Cr65   2.024       .  S
O61          C62   1.262       .  A
C62        C5306   1.521       .  S
Cr63         O66   1.795       .  S
Cr64         O66   1.771       .  S
Cr65         O66   1.766       .  S
O67         Cr85   1.930       .  S
O67          C75   1.246       .  A
O68         Cr85   1.979       .  S
O68          C69   1.266       .  A
C69          O70   1.258       .  A
C69        C5295   1.454       .  S
O70         Cr86   1.952       .  S
O71         Cr86   1.978       .  S
O71          C72   1.252       .  A
C72          O73   1.264       .  A
C72         C226   1.473       .  S
O73         Cr87   2.011       .  S
O74         Cr87   2.069       .  S
O74          C75   1.282       .  A
C75        C5250   1.511       .  S
O76         Cr85   1.983       .  S
O76          C84   1.257       .  A
O77         Cr85   1.962       .  S
O77          C78   1.251       .  A
C78          O79   1.256       .  A
C78        C5278   1.453       .  S
O79         Cr86   1.974       .  S
O80         Cr86   1.975       .  S
O80          C81   1.265       .  A
C81          O82   1.282       .  A
C81         C367   1.477       .  S
O82         Cr87   2.050       .  S
O83         Cr87   2.020       .  S
O83          C84   1.269       .  A
C84        C5267   1.512       .  S
Cr85         O88   1.788       .  S
Cr86         O88   1.767       .  S
Cr87         O88   1.756       .  S
O89        Cr107   1.984       .  S
O89          C97   1.256       .  A
O90        Cr107   1.961       .  S
O90          C91   1.254       .  A
C91          O92   1.265       .  A
C91        C5236   1.442       .  S
O92        Cr108   1.988       .  S
O93        Cr108   1.976       .  S
O93          C94   1.261       .  A
C94          O95   1.276       .  A
C94         C182   1.478       .  S
O95        Cr109   2.028       .  S
O96        Cr109   2.033       .  S
O96          C97   1.263       .  A
C97        C5194   1.524       .  S
O98        Cr107   1.959       .  S
O98         C106   1.257       .  A
O99        Cr107   1.980       .  S
O99         C100   1.257       .  A
C100        O101   1.257       .  A
C100       C5222   1.448       .  S
O101       Cr108   1.959       .  S
O102       Cr108   1.982       .  S
O102        C103   1.256       .  A
C103        O104   1.266       .  A
C103        C323   1.476       .  S
O104       Cr109   2.006       .  S
O105       Cr109   2.076       .  S
O105        C106   1.287       .  A
C106       C5208   1.518       .  S
Cr107       O110   1.796       .  S
Cr108       O110   1.770       .  S
Cr109       O110   1.764       .  S
O111       Cr129   1.956       .  S
O111        C119   1.254       .  A
O112       Cr129   1.998       .  S
O112        C113   1.264       .  A
C113        O114   1.258       .  A
C113       C5180   1.451       .  S
O114       Cr130   1.949       .  S
O115       Cr130   2.028       .  S
O115        C116   1.267       .  A
C116        O117   1.269       .  A
C116        C160   1.481       .  S
O117       Cr131   1.996       .  S
O118       Cr131   2.069       .  S
O118        C119   1.283       .  A
C119       C5138   1.511       .  S
O120       Cr129   1.995       .  S
O120        C128   1.264       .  A
O121       Cr129   1.952       .  S
O121        C122   1.247       .  A
C122        O123   1.266       .  A
C122       C5166   1.445       .  S
O123       Cr130   1.994       .  S
O124       Cr130   1.950       .  S
O124        C125   1.250       .  A
C125        O126   1.272       .  A
C125        C301   1.459       .  S
O126       Cr131   2.040       .  S
O127       Cr131   2.022       .  S
O127        C128   1.266       .  A
C128       C5152   1.521       .  S
Cr129       O132   1.780       .  S
Cr130       O132   1.762       .  S
Cr131       O132   1.762       .  S
O133       Cr151   1.919   1_554  S
O133        C141   1.248       .  A
O134       Cr151   1.991   1_554  S
O134        C135   1.266       .  A
C135        O136   1.259       .  A
C135       C5124   1.461       .  S
O136       Cr152   1.956   1_554  S
O137       Cr152   1.974   1_554  S
O137        C138   1.252       .  A
C138        O139   1.267       .  A
O139       Cr153   2.013   1_554  S
O140       Cr153   2.085   1_554  S
O140        C141   1.288       .  A
C141       C5082   1.512       .  S
O142       Cr151   1.982       .  S
O142        C150   1.254       .  A
O143       Cr151   1.954       .  S
O143        C144   1.249       .  A
C144        O145   1.258       .  A
C144       C5110   1.434       .  S
O145       Cr152   1.974       .  S
O146       Cr152   1.964       .  S
O146        C147   1.261       .  A
C147        O148   1.279       .  A
C147       C1951   1.466       .  S
O148       Cr153   2.043       .  S
O149       Cr153   2.044       .  S
O149        C150   1.268       .  A
C150       C5096   1.525       .  S
Cr151       O154   1.784       .  S
Cr152       O154   1.764       .  S
Cr153       O154   1.757       .  S
O155       Cr173   1.980   1_554  S
O155        C163   1.254       .  A
O156       Cr173   1.951   1_554  S
O156        C157   1.252       .  A
C157        O158   1.266       .  A
C157       C5068   1.431       .  S
O158       Cr174   1.986   1_554  S
O159       Cr174   1.958   1_554  S
O159        C160   1.257       .  A
C160        O161   1.279       .  A
O161       Cr175   2.049   1_554  S
O162       Cr175   2.029   1_554  S
O162        C163   1.262       .  A
C163       C5026   1.516       .  S
O164       Cr173   1.939       .  S
O164        C172   1.254       .  A
O165       Cr173   1.983       .  S
O165        C166   1.256       .  A
C166        O167   1.258       .  A
C166       C5057   1.441       .  S
O167       Cr174   1.972       .  S
O168       Cr174   1.992       .  S
O168        C169   1.259       .  A
C169        O170   1.266       .  A
C169       C1973   1.477       .  S
O170       Cr175   2.011       .  S
O171       Cr175   2.080       .  S
O171        C172   1.289       .  A
C172       C5040   1.511       .  S
Cr173       O176   1.787       .  S
Cr174       O176   1.764       .  S
Cr175       O176   1.760       .  S
O177       Cr195   1.935       .  S
O177        C185   1.251       .  A
O178       Cr195   1.983       .  S
O178        C179   1.262       .  A
C179        O180   1.262       .  A
C179       C5012   1.464       .  S
O180       Cr196   1.966       .  S
O181       Cr196   1.991       .  S
O181        C182   1.255       .  A
C182        O183   1.268       .  A
O183       Cr197   2.018       .  S
O184       Cr197   2.069       .  S
O184        C185   1.284       .  A
C185       C4970   1.510       .  S
O186       Cr195   1.984   1_565  S
O186        C194   1.257       .  A
O187       Cr195   1.961   1_565  S
O187        C188   1.252       .  A
C188        O189   1.262   1_565  A
C188       C4998   1.449       .  S
O189       Cr196   1.991       .  S
O190       Cr196   1.965   1_565  S
O190        C191   1.262       .  A
C191        O192   1.276       .  A
C191       C1885   1.462       .  S
O192       Cr197   2.034   1_565  S
O193       Cr197   2.037   1_565  S
O193        C194   1.267       .  A
C194       C4987   1.522       .  S
Cr195       O198   1.784       .  S
Cr196       O198   1.766       .  S
Cr197       O198   1.759       .  S
O199       Cr217   1.955   1_455  S
O199        C207   1.255       .  A
O200       Cr217   1.974       .  S
O200        C201   1.258   1_655  A
C201        O202   1.263       .  A
C201       C4956   1.453       .  S
O202       Cr218   1.978   1_455  S
O203       Cr218   1.986       .  S
O203        C204   1.257   1_655  A
C204        O205   1.264       .  A
O205       Cr219   1.994   1_455  S
O206       Cr219   2.067   1_455  S
O206        C207   1.284       .  A
C207       C4914   1.514       .  S
O208       Cr217   1.981       .  S
O208        C216   1.255       .  A
O209       Cr217   1.971       .  S
O209        C210   1.256       .  A
C210        O211   1.262       .  A
C210       C4942   1.446       .  S
O211       Cr218   1.977       .  S
O212       Cr218   1.985       .  S
O212        C213   1.263       .  A
C213        O214   1.276       .  A
C213       C1929   1.482       .  S
O214       Cr219   2.041       .  S
O215       Cr219   2.018       .  S
O215        C216   1.263       .  A
C216       C4928   1.514       .  S
Cr217       O220   1.790       .  S
Cr218       O220   1.765       .  S
Cr219       O220   1.764       .  S
O221       Cr239   1.949   1_455  S
O221        C229   1.253       .  A
O222       Cr239   1.974       .  S
O222        C223   1.255       .  A
C223        O224   1.258       .  A
C223       C4900   1.443   1_655  S
O224       Cr240   1.958       .  S
O225       Cr240   1.995       .  S
O225        C226   1.257   1_655  A
C226        O227   1.265       .  A
O227       Cr241   1.989   1_455  S
O228       Cr241   2.081       .  S
O228        C229   1.289   1_655  A
C229       C4858   1.517       .  S
O230       Cr239   1.980       .  S
O230        C238   1.254       .  A
O231       Cr239   1.956       .  S
O231        C232   1.253       .  A
C232        O233   1.267       .  A
C232       C4886   1.440       .  S
O233       Cr240   1.993       .  S
O234       Cr240   1.968       .  S
O234        C235   1.261       .  A
C235        O236   1.277       .  A
C235       C1863   1.476       .  S
O236       Cr241   2.033       .  S
O237       Cr241   2.013       .  S
O237        C238   1.259       .  A
C238       C4872   1.510       .  S
Cr239       O242   1.795       .  S
Cr240       O242   1.770       .  S
Cr241       O242   1.760       .  S
O243       Cr261   1.990       .  S
O243        C251   1.260       .  A
O244       Cr261   1.956       .  S
O244        C245   1.250       .  A
C245        O246   1.264       .  A
C245       C4844   1.443       .  S
O246       Cr262   1.990       .  S
O247       Cr262   1.957       .  S
O247        C248   1.256       .  A
C248        O249   1.275       .  A
O249       Cr263   2.037       .  S
O250       Cr263   2.044       .  S
O250        C251   1.268       .  A
C251       C4802   1.528       .  S
O252       Cr261   1.930   1_565  S
O252        C260   1.251       .  A
O253       Cr261   1.995       .  S
O253        C254   1.261   1_545  A
C254        O255   1.255       .  A
C254       C4830   1.441       .  S
O255       Cr262   1.949   1_565  S
O256       Cr262   1.995   1_565  S
O256        C257   1.259       .  A
C257        O258   1.269       .  A
C257       C1907   1.485       .  S
O258       Cr263   2.014   1_565  S
O259       Cr263   2.075   1_565  S
O259        C260   1.286       .  A
C260       C4819   1.509       .  S
Cr261       O264   1.789       .  S
Cr262       O264   1.761       .  S
Cr263       O264   1.761       .  S
O265       Cr283   1.987       .  S
O265        C273   1.258       .  A
O266       Cr283   1.965       .  S
O266        C267   1.256       .  A
C267        O268   1.267       .  A
C267       C4777   1.450       .  S
O268       Cr284   1.994       .  S
O269       Cr284   1.976       .  S
O269        C270   1.261       .  A
C270        O271   1.279       .  A
C270       C1942   1.491       .  S
O271       Cr285   2.051       .  S
O272       Cr285   2.013       .  S
O272        C273   1.261       .  A
C273       C4760   1.514       .  S
O274       Cr283   1.961   1_554  S
O274        C282   1.256       .  A
O275       Cr283   1.979       .  S
O275        C276   1.256   1_556  A
C276        O277   1.261       .  A
C276       C4788   1.451       .  S
O277       Cr284   1.976   1_554  S
O278       Cr284   2.004   1_554  S
O278        C279   1.260       .  A
C279        O280   1.264       .  A
O280       Cr285   2.002   1_554  S
O281       Cr285   2.071   1_554  S
O281        C282   1.284       .  A
C282       C4746   1.520       .  S
Cr283       O286   1.792       .  S
Cr284       O286   1.768       .  S
Cr285       O286   1.766       .  S
O287       Cr305   1.952       .  S
O287        C295   1.256       .  A
O288       Cr305   1.985       .  S
O288        C289   1.260       .  A
C289        O290   1.261       .  A
C289       C4718   1.449       .  S
O290       Cr306   1.955       .  S
O291       Cr306   1.993       .  S
O291        C292   1.254       .  A
C292        O293   1.266       .  A
C292       C1964   1.481       .  S
O293       Cr307   2.002       .  S
O294       Cr307   2.064       .  S
O294        C295   1.285       .  A
C295       C4704   1.513       .  S
O296       Cr305   1.987   1_554  S
O296        C304   1.257       .  A
O297       Cr305   1.978   1_554  S
O297        C298   1.258       .  A
C298        O299   1.261       .  A
C298       C4732   1.449       .  S
O299       Cr306   1.982   1_554  S
O300       Cr306   1.958   1_554  S
O300        C301   1.258       .  A
C301        O302   1.274       .  A
O302       Cr307   2.029   1_554  S
O303       Cr307   2.028   1_554  S
O303        C304   1.263       .  A
C304       C4690   1.519       .  S
Cr305       O308   1.796       .  S
Cr306       O308   1.763       .  S
Cr307       O308   1.763       .  S
O309       Cr327   1.984   1_565  S
O309        C317   1.256       .  A
O310       Cr327   1.953   1_565  S
O310        C311   1.250       .  A
C311        O312   1.269       .  A
C311       C4662   1.440       .  S
O312       Cr328   1.993   1_565  S
O313       Cr328   1.969   1_565  S
O313        C314   1.259       .  A
C314        O315   1.278       .  A
C314       C1876   1.482       .  S
O315       Cr329   2.041   1_565  S
O316       Cr329   2.017   1_565  S
O316        C317   1.261       .  A
C317       C4648   1.516       .  S
O318       Cr327   1.956       .  S
O318        C326   1.256       .  A
O319       Cr327   1.993       .  S
O319        C320   1.258       .  A
C320        O321   1.257       .  A
C320       C4679   1.450       .  S
O321       Cr328   1.959       .  S
O322       Cr328   1.998       .  S
O322        C323   1.259       .  A
C323        O324   1.266       .  A
O324       Cr329   1.994       .  S
O325       Cr329   2.075       .  S
O325        C326   1.288       .  A
C326       C4634   1.512       .  S
Cr327       O330   1.795       .  S
Cr328       O330   1.767       .  S
Cr329       O330   1.760       .  S
O331       Cr349   1.983       .  S
O331        C339   1.257       .  A
O332       Cr349   1.949       .  S
O332        C333   1.250       .  A
C333        O334   1.269       .  A
C333       C4606   1.440       .  S
O334       Cr350   1.998       .  S
O335       Cr350   1.957       .  S
O335        C336   1.256       .  A
C336        O337   1.278       .  A
C336       C1920   1.474       .  S
O337       Cr351   2.041       .  S
O338       Cr351   2.032       .  S
O338        C339   1.263       .  A
C339       C4592   1.521       .  S
O340       Cr349   1.946   1_455  S
O340        C348   1.253       .  A
O341       Cr349   1.983       .  S
O341        C342   1.257   1_655  A
C342        O343   1.257       .  A
C342       C4620   1.439       .  S
O343       Cr350   1.962   1_455  S
O344       Cr350   2.010       .  S
O344        C345   1.261   1_655  A
C345        O346   1.267       .  A
O346       Cr351   2.007   1_455  S
O347       Cr351   2.081   1_455  S
O347        C348   1.289       .  A
C348       C4578   1.513       .  S
Cr349       O352   1.793       .  S
Cr350       O352   1.766       .  S
Cr351       O352   1.759       .  S
O353       Cr371   1.950       .  S
O353        C361   1.251       .  A
O354       Cr371   1.992       .  S
O354        C355   1.262       .  A
C355        O356   1.264       .  A
C355       C4550   1.464       .  S
O356       Cr372   1.956       .  S
O357       Cr372   1.995       .  S
O357        C358   1.253       .  A
C358        O359   1.264       .  A
C358       C1854   1.470       .  S
O359       Cr373   2.002       .  S
O360       Cr373   2.071       .  S
O360        C361   1.283       .  A
C361       C4536   1.520       .  S
O362       Cr371   1.991       .  S
O362        C370   1.261   1_655  A
O363       Cr371   1.963   1_455  S
O363        C364   1.251       .  A
C364        O365   1.259   1_455  A
C364       C4564   1.446       .  S
O365       Cr372   1.970       .  S
O366       Cr372   1.979   1_455  S
O366        C367   1.264       .  A
C367        O368   1.277   1_455  A
O368       Cr373   2.040       .  S
O369       Cr373   2.028   1_455  S
O369        C370   1.268       .  A
C370       C4522   1.521       .  S
Cr371       O374   1.792       .  S
Cr372       O374   1.767       .  S
Cr373       O374   1.757       .  S
O375       Cr393   1.947   1_565  S
O375        C383   1.253       .  A
O376       Cr393   1.986       .  S
O376        C377   1.260   1_545  A
C377        O378   1.261       .  A
C377       C4494   1.449       .  S
O378       Cr394   1.957   1_565  S
O379       Cr394   2.012       .  S
O379        C380   1.260   1_545  A
C380        O381   1.263       .  A
C380       C1898   1.479       .  S
O381       Cr395   2.000   1_565  S
O382       Cr395   2.089   1_565  S
O382        C383   1.288       .  A
C383       C4480   1.531       .  S
O384       Cr393   1.984       .  S
O384        C392   1.257       .  A
O385       Cr393   1.962       .  S
O385        C386   1.253       .  A
C386        O387   1.266       .  A
C386       C4508   1.447       .  S
O387       Cr394   1.995       .  S
O388       Cr394   1.962       .  S
O388        C389   1.259       .  A
C389        O390   1.282       .  A
O390       Cr395   2.056       .  S
O391       Cr395   2.014       .  S
O391        C392   1.262       .  A
C392       C4466   1.512       .  S
Cr393       O396   1.790       .  S
Cr394       O396   1.766       .  S
Cr395       O396   1.762       .  S
O397       Cr415   1.957       .  S
O397        C405   1.252       .  A
O398       Cr415   1.989       .  S
O398        C399   1.263       .  A
C399        O400   1.264       .  A
C399       C4452   1.455       .  S
O400       Cr416   1.953       .  S
O401       Cr416   2.000       .  S
O401        C402   1.256       .  A
C402        O403   1.261       .  A
C402       C1700   1.465       .  S
O403       Cr417   1.993       .  S
O404       Cr417   2.074       .  S
O404        C405   1.284       .  A
C405       C4413   1.529       .  S
O406       Cr415   1.990       .  S
O406        C414   1.262       .  A
O407       Cr415   1.971       .  S
O407        C408   1.254       .  A
C408        O409   1.259       .  A
C408       C4441   1.448       .  S
O409       Cr416   1.974       .  S
O410       Cr416   1.969       .  S
O410        C411   1.261       .  A
C411        O412   1.279       .  A
C411        C587   1.471       .  S
O412       Cr417   2.047       .  S
O413       Cr417   2.020       .  S
O413        C414   1.264       .  A
C414       C4424   1.517       .  S
Cr415       O418   1.786       .  S
Cr416       O418   1.763       .  S
Cr417       O418   1.759       .  S
O419       Cr437   1.940       .  S
O419        C427   1.252       .  A
O420       Cr437   1.986       .  S
O420        C421   1.258       .  A
C421        O422   1.259       .  A
C421       C4382   1.450       .  S
O422       Cr438   1.963       .  S
O423       Cr438   2.002       .  S
O423        C424   1.258       .  A
C424        O425   1.267       .  A
C424       C1172   1.478       .  S
O425       Cr439   2.007       .  S
O426       Cr439   2.067       .  S
O426        C427   1.283       .  A
C427       C4368   1.513       .  S
O428       Cr437   1.987       .  S
O428        C436   1.257       .  A
O429       Cr437   1.951       .  S
O429        C430   1.251       .  A
C430        O431   1.268       .  A
C430       C4396   1.441       .  S
O431       Cr438   1.998       .  S
O432       Cr438   1.965       .  S
O432        C433   1.260       .  A
C433        O434   1.274       .  A
C433       C1599   1.464       .  S
O434       Cr439   2.018       .  S
O435       Cr439   2.030       .  S
O435        C436   1.265       .  A
C436       C4354   1.521       .  S
Cr437       O440   1.791       .  S
Cr438       O440   1.768       .  S
Cr439       O440   1.760       .  S
O441       Cr459   1.947       .  S
O441        C449   1.254       .  A
O442       Cr459   2.019       .  S
O442        C443   1.272       .  A
C443        O444   1.247       .  A
C443       C4609   1.448       .  S
O444       Cr460   1.932       .  S
O445       Cr460   1.995       .  S
O445        C446   1.259       .  A
C446        O447   1.264       .  A
C446       C4329   1.506       .  S
O447       Cr461   2.006       .  S
O448       Cr461   2.086       .  S
O448        C449   1.285       .  A
C449       C4298   1.520       .  S
O450       Cr459   2.022       .  S
O450        C458   1.271       .  A
O451       Cr459   1.940       .  S
O451        C452   1.250       .  A
C452        O453   1.258       .  A
C452       C4312   1.455       .  S
O453       Cr460   1.993       .  S
O454       Cr460   1.939       .  S
O454        C455   1.250       .  A
C455        O456   1.292       .  A
C455       C4340   1.524       .  S
O456       Cr461   2.105       .  S
O457       Cr461   2.008       .  S
O457        C458   1.270       .  A
C458       C4427   1.513       .  S
Cr459       O462   1.776       .  S
Cr460       O462   1.791       .  S
Cr461       O462   1.763       .  S
O463       Cr481   2.017       .  S
O463        C471   1.267       .  A
O464       Cr481   1.947       .  S
O464        C465   1.253       .  A
C465        O466   1.261       .  A
C465       C5449   1.459       .  S
O466       Cr482   2.000       .  S
O467       Cr482   1.923       .  S
O467        C468   1.251       .  A
C468        O469   1.287       .  A
C468       C4284   1.506       .  S
O469       Cr483   2.095       .  S
O470       Cr483   2.035       .  S
O470        C471   1.272       .  A
C471       C4805   1.527       .  S
O472       Cr481   1.964       .  S
O472        C480   1.261       .  A
O473       Cr481   2.021       .  S
O473        C474   1.269       .  A
C474        O475   1.245       .  A
C474       C4438   1.455       .  S
O475       Cr482   1.929       .  S
O476       Cr482   1.994       .  S
O476        C477   1.258       .  A
C477        O478   1.271       .  A
C477       C4343   1.516       .  S
O478       Cr483   2.031       .  S
O479       Cr483   2.082       .  S
O479        C480   1.286       .  A
C480       C4270   1.524       .  S
Cr481       O484   1.770       .  S
Cr482       O484   1.782       .  S
Cr483       O484   1.762       .  S
O485       Cr503   2.009       .  S
O485        C493   1.265       .  A
O486       Cr503   1.940       .  S
O486        C487   1.252       .  A
C487        O488   1.259       .  A
C487       C4242   1.444       .  S
O488       Cr504   1.999       .  S
O489       Cr504   1.919       .  S
O489        C490   1.251       .  A
C490        O491   1.290       .  A
C490       C4326   1.510       .  S
O491       Cr505   2.099       .  S
O492       Cr505   2.031       .  S
O492        C493   1.272       .  A
C493       C4595   1.519       .  S
O494       Cr503   1.951       .  S
O494        C502   1.257       .  A
O495       Cr503   2.009       .  S
O495        C496   1.269       .  A
C496        O497   1.251       .  A
C496       C4228   1.451       .  S
O497       Cr504   1.948       .  S
O498       Cr504   1.984       .  S
O498        C499   1.255       .  A
C499        O500   1.268       .  A
C499       C4256   1.511       .  S
O500       Cr505   2.036       .  S
O501       Cr505   2.076       .  S
O501        C502   1.285       .  A
C502       C5043   1.511       .  S
Cr503       O506   1.760       .  S
Cr504       O506   1.779       .  S
Cr505       O506   1.761       .  S
O507       Cr525   1.999       .  S
O507        C515   1.260       .  A
O508       Cr525   1.950       .  S
O508        C509   1.255       .  A
C509        O510   1.257       .  A
C509       C4200   1.450       .  S
O510       Cr526   1.986       .  S
O511       Cr526   1.934       .  S
O511        C512   1.252       .  A
C512        O513   1.290       .  A
C512       C4214   1.513       .  S
O513       Cr527   2.093       .  S
O514       Cr527   2.020       .  S
O514        C515   1.268       .  A
C515       C4371   1.508       .  S
O516       Cr525   1.957       .  S
O516        C524   1.261       .  A
O517       Cr525   1.999       .  S
O517        C518   1.264       .  A
C518        O519   1.253       .  A
C518       C5054   1.449       .  S
O519       Cr526   1.946       .  S
O520       Cr526   1.985       .  S
O520        C521   1.257       .  A
C521        O522   1.269       .  A
C521       C4259   1.498       .  S
O522       Cr527   2.032       .  S
O523       Cr527   2.091       .  S
O523        C524   1.289       .  A
C524       C4186   1.525       .  S
Cr525       O528   1.774       .  S
Cr526       O528   1.781       .  S
Cr527       O528   1.760       .  S
O529       Cr547   2.084       .  S
O529        C537   1.287       .  A
O530       Cr547   2.021       .  S
O530        C531   1.266       .  A
C531        O532   1.257       .  A
C531       C4172   1.513       .  S
O532       Cr548   1.990       .  S
O533       Cr548   1.929       .  S
O533        C534   1.247       .  A
C534        O535   1.265       .  A
C534       C5225   1.434       .  S
O535       Cr549   2.005       .  S
O536       Cr549   1.958       .  S
O536        C537   1.257       .  A
C537       C4637   1.523       .  S
O538       Cr547   2.025       .  S
O538        C546   1.269       .  A
O539       Cr547   2.088       .  S
O539        C540   1.291       .  A
C540        O541   1.252       .  A
C540       C4217   1.502       .  S
O541       Cr548   1.931       .  S
O542       Cr548   1.997       .  S
O542        C543   1.259       .  A
C543        O544   1.253       .  A
C543       C4385   1.441       .  S
O544       Cr549   1.939       .  S
O545       Cr549   2.010       .  S
O545        C546   1.264       .  A
C546       C4158   1.515       .  S
Cr547       O550   1.759       .  S
Cr548       O550   1.789       .  S
Cr549       O550   1.764       .  S
O551       Cr569   2.019       .  S
O551        C559   1.271       .  A
O552       Cr569   2.101       .  S
O552        C553   1.290       .  A
C553        O554   1.253       .  A
C553       C4175   1.516       .  S
O554       Cr570   1.933       .  S
O555       Cr570   1.999       .  S
O555        C556   1.258       .  A
C556        O557   1.251       .  A
C556       C4676   1.441       .  S
O557       Cr571   1.936       .  S
O558       Cr571   2.024       .  S
O558        C559   1.269       .  A
C559       C5211   1.518       .  S
O560       Cr569   2.090       .  S
O560        C568   1.286       .  A
O561       Cr569   2.012       .  S
O561        C562   1.266       .  A
C562        O563   1.258       .  A
C562       C4287   1.509       .  S
O563       Cr570   1.995       .  S
O564       Cr570   1.935       .  S
O564        C565   1.249       .  A
C565        O566   1.270       .  A
C565       C4847   1.449       .  S
O566       Cr571   2.012       .  S
O567       Cr571   1.958       .  S
O567        C568   1.255       .  A
C568       C5435   1.527       .  S
Cr569       O572   1.764       .  S
Cr570       O572   1.785       .  S
Cr571       O572   1.763       .  S
O573       Cr591   1.959   1_455  S
O573        C581   1.254       .  A
O574       Cr591   1.982       .  S
O574        C575   1.260   1_655  A
C575        O576   1.261       .  A
C575       C4144   1.445       .  S
O576       Cr592   1.960   1_455  S
O577       Cr592   2.020       .  S
O577        C578   1.261   1_655  A
C578        O579   1.263       .  A
C578        C644   1.477       .  S
O579       Cr593   1.992   1_455  S
O580       Cr593   2.065   1_455  S
O580        C581   1.282       .  A
C581       C4130   1.519       .  S
O582       Cr591   1.991       .  S
O582        C590   1.261       .  A
O583       Cr591   1.964       .  S
O583        C584   1.253       .  A
C584        O585   1.266       .  A
C584       C4315   1.451       .  S
O585       Cr592   1.998       .  S
O586       Cr592   1.971       .  S
O586        C587   1.260       .  A
C587        O588   1.275       .  A
O588       Cr593   2.039       .  S
O589       Cr593   2.016       .  S
O589        C590   1.264       .  A
C590       C4273   1.521       .  S
Cr591       O594   1.792       .  S
Cr592       O594   1.765       .  S
Cr593       O594   1.761       .  S
O595       Cr613   1.958   1_565  S
O595        C603   1.253       .  A
O596       Cr613   1.979       .  S
O596        C597   1.262   1_545  A
C597        O598   1.261       .  A
C597       C4105   1.460       .  S
O598       Cr614   1.957   1_565  S
O599       Cr614   1.993       .  S
O599        C600   1.256   1_545  A
C600        O601   1.266       .  A
C600        C820   1.483       .  S
O601       Cr615   2.013   1_565  S
O602       Cr615   2.059   1_565  S
O602        C603   1.280       .  A
C603       C4091   1.515       .  S
O604       Cr613   1.992       .  S
O604        C612   1.259       .  A
O605       Cr613   1.978       .  S
O605        C606   1.256       .  A
C606        O607   1.258       .  A
C606       C4119   1.470       .  S
O607       Cr614   1.983       .  S
O608       Cr614   1.980       .  S
O608        C609   1.265       .  A
C609        O610   1.273       .  A
C609        C631   1.466       .  S
O610       Cr615   2.023       .  S
O611       Cr615   2.025       .  S
O611        C612   1.268       .  A
C612       C4074   1.517       .  S
Cr613       O616   1.795       .  S
Cr614       O616   1.767       .  S
Cr615       O616   1.766       .  S
O617       Cr635   1.936       .  S
O617        C625   1.249       .  A
O618       Cr635   1.983       .  S
O618        C619   1.260       .  A
C619        O620   1.269       .  A
C619       C4063   1.465       .  S
O620       Cr636   1.977       .  S
O621       Cr636   1.998       .  S
O621        C622   1.255       .  A
C622        O623   1.273       .  A
C622       C1634   1.491       .  S
O623       Cr637   2.033       .  S
O624       Cr637   2.069       .  S
O624        C625   1.282       .  A
C625       C4021   1.510       .  S
O626       Cr635   1.981       .  S
O626        C634   1.256       .  A
O627       Cr635   1.973       .  S
O627        C628   1.255       .  A
C628        O629   1.258       .  A
C628       C4046   1.452       .  S
O629       Cr636   1.958       .  S
O630       Cr636   1.976       .  S
O630        C631   1.262       .  A
C631        O632   1.274       .  A
O632       Cr637   2.026       .  S
O633       Cr637   2.039       .  S
O633        C634   1.268       .  A
C634       C4032   1.520       .  S
Cr635       O638   1.791       .  S
Cr636       O638   1.763       .  S
Cr637       O638   1.762       .  S
O639       Cr657   1.987       .  S
O639        C647   1.257       .  A
O640       Cr657   1.952       .  S
O640        C641   1.252       .  A
C641        O642   1.270       .  A
C641       C3990   1.446       .  S
O642       Cr658   2.003       .  S
O643       Cr658   1.960       .  S
O643        C644   1.257       .  A
C644        O645   1.278       .  A
O645       Cr659   2.042       .  S
O646       Cr659   2.026       .  S
O646        C647   1.261       .  A
C647       C3979   1.520       .  S
O648       Cr657   1.942       .  S
O648        C656   1.253       .  A
O649       Cr657   1.989       .  S
O649        C650   1.258       .  A
C650        O651   1.257       .  A
C650       C4004   1.451       .  S
O651       Cr658   1.966       .  S
O652       Cr658   2.008       .  S
O652        C653   1.261       .  A
C653        O654   1.268       .  A
C653       C1709   1.490       .  S
O654       Cr659   2.006       .  S
O655       Cr659   2.084       .  S
O655        C656   1.289       .  A
C656       C3962   1.516       .  S
Cr657       O660   1.792       .  S
Cr658       O660   1.767       .  S
Cr659       O660   1.766       .  S
O661       Cr679   1.973       .  S
O661        C669   1.259       .  A
O662       Cr679   2.005       .  S
O662        C663   1.268       .  A
C663        O664   1.249       .  A
C663       C5015   1.439       .  S
O664       Cr680   1.940       .  S
O665       Cr680   1.993       .  S
O665        C666   1.258       .  A
C666        O667   1.268       .  A
C666       C3934   1.514       .  S
O667       Cr681   2.038       .  S
O668       Cr681   2.075       .  S
O668        C669   1.282       .  A
C669       C5197   1.528       .  S
O670       Cr679   2.004       .  S
O670        C678   1.265       .  A
O671       Cr679   1.951       .  S
O671        C672   1.252       .  A
C672        O673   1.258       .  A
C672       C4116   1.454       .  S
O673       Cr680   2.005       .  S
O674       Cr680   1.939       .  S
O674        C675   1.255       .  A
C675        O676   1.288       .  A
C675       C3948   1.494       .  S
O676       Cr681   2.083       .  S
O677       Cr681   2.026       .  S
O677        C678   1.272       .  A
C678       C4035   1.512       .  S
Cr679       O682   1.766       .  S
Cr680       O682   1.793       .  S
Cr681       O682   1.768       .  S
O683       Cr701   2.089       .  S
O683        C691   1.288       .  A
O684       Cr701   2.037       .  S
O684        C685   1.269       .  A
C685        O686   1.255       .  A
C685       C3906   1.506       .  S
O686       Cr702   1.983       .  S
O687       Cr702   1.937       .  S
O687        C688   1.250       .  A
C688        O689   1.266       .  A
C688       C4623   1.444       .  S
O689       Cr703   2.000       .  S
O690       Cr703   1.941       .  S
O690        C691   1.257       .  A
C691       C5365   1.512       .  S
O692       Cr701   2.039       .  S
O692        C700   1.272       .  A
O693       Cr701   2.097       .  S
O693        C694   1.292       .  A
C694        O695   1.248       .  A
C694       C3920   1.506       .  S
O695       Cr702   1.915       .  S
O696       Cr702   1.987       .  S
O696        C697   1.257       .  A
C697        O698   1.254       .  A
C697       C4147   1.435       .  S
O698       Cr703   1.943       .  S
O699       Cr703   1.998       .  S
O699        C700   1.261       .  A
C700       C3976   1.516       .  S
Cr701       O704   1.758       .  S
Cr702       O704   1.777       .  S
Cr703       O704   1.761       .  S
O705       Cr723   2.023       .  S
O705        C713   1.269       .  A
O706       Cr723   1.935       .  S
O706        C707   1.253       .  A
C707        O708   1.261       .  A
C707       C3993   1.458       .  S
O708       Cr724   1.996       .  S
O709       Cr724   1.914       .  S
O709        C710   1.245       .  A
C710        O711   1.289       .  A
C710       C3923   1.501       .  S
O711       Cr725   2.092       .  S
O712       Cr725   2.019       .  S
O712        C713   1.270       .  A
C713       C4133   1.518       .  S
O714       Cr723   1.964       .  S
O714        C722   1.259       .  A
O715       Cr723   2.008       .  S
O715        C716   1.269       .  A
C716        O717   1.248       .  A
C716       C4049   1.459       .  S
O717       Cr724   1.933       .  S
O718       Cr724   1.999       .  S
O718        C719   1.260       .  A
C719        O720   1.265       .  A
C719       C3951   1.503       .  S
O720       Cr725   2.014       .  S
O721       Cr725   2.081       .  S
O721        C722   1.285       .  A
C722       C4077   1.521       .  S
Cr723       O726   1.769       .  S
Cr724       O726   1.789       .  S
Cr725       O726   1.760       .  S
O727       Cr745   2.088       .  S
O727        C735   1.286       .  A
O728       Cr745   2.010       .  S
O728        C729   1.264       .  A
C729        O730   1.260       .  A
C729       C3878   1.512       .  S
O730       Cr746   1.998       .  S
O731       Cr746   1.930       .  S
O731        C732   1.246       .  A
C732        O733   1.269       .  A
C732       C3853   1.434       .  S
O733       Cr747   2.010       .  S
O734       Cr747   1.955       .  S
O734        C735   1.257       .  A
C735       C4357   1.525       .  S
O736       Cr745   2.011       .  S
O736        C744   1.268       .  A
O737       Cr745   2.094       .  S
O737        C738   1.291       .  A
C738        O739   1.245       .  A
C738       C3892   1.504       .  S
O739       Cr746   1.915       .  S
O740       Cr746   2.006       .  S
O740        C741   1.261       .  A
C741        O742   1.251       .  A
C741       C3836   1.450       .  S
O742       Cr747   1.939       .  S
O743       Cr747   2.013       .  S
O743        C744   1.267       .  A
C744       C3864   1.505       .  S
Cr745       O748   1.762       .  S
Cr746       O748   1.787       .  S
Cr747       O748   1.761       .  S
O749       Cr767   2.081       .  S
O749        C757   1.286       .  A
O750       Cr767   2.021       .  S
O750        C751   1.267       .  A
C751        O752   1.260       .  A
C751       C3909   1.502       .  S
O752       Cr768   1.998       .  S
O753       Cr768   1.914       .  S
O753        C754   1.245       .  A
C754        O755   1.271       .  A
C754       C5407   1.442       .  S
O755       Cr769   2.020       .  S
O756       Cr769   1.957       .  S
O756        C757   1.257       .  A
C757       C4581   1.523       .  S
O758       Cr767   2.009       .  S
O758        C766   1.268       .  A
O759       Cr767   2.091       .  S
O759        C760   1.289       .  A
C760        O761   1.245       .  A
C760       C3895   1.499       .  S
O761       Cr768   1.914       .  S
O762       Cr768   1.985       .  S
O762        C763   1.257       .  A
C763        O764   1.251       .  A
C763       C3822   1.466       .  S
O764       Cr769   1.957       .  S
O765       Cr769   2.021       .  S
O765        C766   1.268       .  A
C766       C3808   1.520       .  S
Cr767       O770   1.762       .  S
Cr768       O770   1.791       .  S
Cr769       O770   1.781       .  S
O771       Cr789   2.029       .  S
O771        C779   1.274       .  A
O772       Cr789   2.096       .  S
O772        C773   1.289       .  A
C773        O774   1.254       .  A
C773       C3881   1.513       .  S
O774       Cr790   1.936       .  S
O775       Cr790   1.986       .  S
O775        C776   1.256       .  A
C776        O777   1.250       .  A
C776       C4399   1.455       .  S
O777       Cr791   1.943       .  S
O778       Cr791   2.012       .  S
O778        C779   1.266       .  A
C779       C3794   1.522       .  S
O780       Cr789   2.075       .  S
O780        C788   1.284       .  A
O781       Cr789   2.043       .  S
O781        C782   1.271       .  A
C782        O783   1.257       .  A
C782       C3937   1.512       .  S
O783       Cr790   1.990       .  S
O784       Cr790   1.935       .  S
O784        C785   1.249       .  A
C785        O786   1.271       .  A
C785       C5239   1.447       .  S
O786       Cr791   2.018       .  S
O787       Cr791   1.946       .  S
O787        C788   1.256       .  A
C788       C4973   1.514       .  S
Cr789       O792   1.760       .  S
Cr790       O792   1.787       .  S
Cr791       O792   1.779       .  S
O793       Cr811   1.985       .  S
O793        C801   1.258       .  A
O794       Cr811   1.958       .  S
O794        C795   1.251       .  A
C795        O796   1.270       .  A
C795       C3825   1.449       .  S
O796       Cr812   2.003       .  S
O797       Cr812   1.952       .  S
O797        C798   1.256       .  A
C798        O799   1.275       .  A
C798       C1656   1.462       .  S
O799       Cr813   2.031       .  S
O800       Cr813   2.017       .  S
O800        C801   1.260       .  A
C801       C3867   1.514       .  S
O802       Cr811   1.952       .  S
O802        C810   1.254       .  A
O803       Cr811   1.989       .  S
O803        C804   1.260       .  A
C804        O805   1.258       .  A
C804       C3780   1.440       .  S
O805       Cr812   1.954       .  S
O806       Cr812   2.020       .  S
O806        C807   1.263       .  A
C807        O808   1.264       .  A
C807       C1379   1.481       .  S
O808       Cr813   1.995       .  S
O809       Cr813   2.072       .  S
O809        C810   1.286       .  A
C810       C3766   1.512       .  S
Cr811       O814   1.790       .  S
Cr812       O814   1.764       .  S
Cr813       O814   1.760       .  S
O815       Cr833   1.950       .  S
O815        C823   1.256       .  A
O816       Cr833   1.986       .  S
O816        C817   1.258       .  A
C817        O818   1.261       .  A
C817       C3738   1.455       .  S
O818       Cr834   1.979       .  S
O819       Cr834   2.004       .  S
O819        C820   1.260       .  A
C820        O821   1.266       .  A
O821       Cr835   1.997       .  S
O822       Cr835   2.074       .  S
O822        C823   1.285       .  A
C823       C3724   1.518       .  S
O824       Cr833   1.988       .  S
O824        C832   1.257       .  A
O825       Cr833   1.953       .  S
O825        C826   1.251       .  A
C826        O827   1.268       .  A
C826       C3752   1.442       .  S
O827       Cr834   1.999       .  S
O828       Cr834   1.977       .  S
O828        C829   1.262       .  A
C829        O830   1.273       .  A
C829       C1643   1.474       .  S
O830       Cr835   2.021       .  S
O831       Cr835   2.021       .  S
O831        C832   1.260       .  A
C832       C3710   1.521       .  S
Cr833       O836   1.793       .  S
Cr834       O836   1.772       .  S
Cr835       O836   1.767       .  S
O837       Cr855   2.035       .  S
O837        C845   1.269       .  A
O838       Cr855   2.087       .  S
O838        C839   1.286       .  A
C839        O840   1.250       .  A
C839       C3682   1.511       .  S
O840       Cr856   1.922       .  S
O841       Cr856   1.993       .  S
O841        C842   1.263       .  A
C842        O843   1.256       .  A
C842       C3668   1.455       .  S
O843       Cr857   1.935       .  S
O844       Cr857   2.001       .  S
O844        C845   1.260       .  A
C845       C4984   1.514       .  S
O846       Cr855   2.083       .  S
O846        C854   1.288       .  A
O847       Cr855   2.027       .  S
O847        C848   1.270       .  A
C848        O849   1.259       .  A
C848       C3696   1.516       .  S
O849       Cr856   1.990       .  S
O850       Cr856   1.949       .  S
O850        C851   1.251       .  A
C851        O852   1.262       .  A
C851       C3654   1.458       .  S
O852       Cr857   1.992       .  S
O853       Cr857   1.954       .  S
O853        C854   1.261       .  A
C854       C4763   1.517       .  S
Cr855       O858   1.759       .  S
Cr856       O858   1.782       .  S
Cr857       O858   1.772       .  S
O859       Cr877   2.080       .  S
O859        C867   1.286       .  A
O860       Cr877   2.022       .  S
O860        C861   1.265       .  A
C861        O862   1.257       .  A
C861       C3643   1.500       .  S
O862       Cr878   1.982       .  S
O863       Cr878   1.951       .  S
O863        C864   1.251       .  A
C864        O865   1.266       .  A
C864       C3626   1.456       .  S
O865       Cr879   2.006       .  S
O866       Cr879   1.961       .  S
O866        C867   1.259       .  A
C867       C3769   1.522       .  S
O868       Cr877   2.017       .  S
O868        C876   1.270       .  A
O869       Cr877   2.097       .  S
O869        C870   1.290       .  A
C870        O871   1.253       .  A
C870       C3699   1.517       .  S
O871       Cr878   1.934       .  S
O872       Cr878   1.995       .  S
O872        C873   1.260       .  A
C873        O874   1.253       .  A
C873       C4774   1.460       .  S
O874       Cr879   1.942       .  S
O875       Cr879   2.014       .  S
O875        C876   1.266       .  A
C876       C3612   1.513       .  S
Cr877       O880   1.762       .  S
Cr878       O880   1.785       .  S
Cr879       O880   1.772       .  S
O881       Cr899   2.005       .  S
O881        C889   1.263       .  A
O882       Cr899   1.934       .  S
O882        C883   1.253       .  A
C883        O884   1.254       .  A
C883       C5393   1.432       .  S
O884       Cr900   1.987       .  S
O885       Cr900   1.925       .  S
O885        C886   1.250       .  A
C886        O887   1.295       .  A
C886       C3598   1.511       .  S
O887       Cr901   2.104       .  S
O888       Cr901   2.027       .  S
O888        C889   1.271       .  A
C889       C4917   1.514       .  S
O890       Cr899   1.939       .  S
O890        C898   1.253       .  A
O891       Cr899   1.998       .  S
O891        C892   1.267       .  A
C892        O893   1.253       .  A
C892       C3783   1.443       .  S
O893       Cr900   1.945       .  S
O894       Cr900   1.976       .  S
O894        C895   1.252       .  A
C895        O896   1.266       .  A
C895       C3640   1.495       .  S
O896       Cr901   2.033       .  S
O897       Cr901   2.093       .  S
O897        C898   1.289       .  A
C898       C3584   1.522       .  S
Cr899       O902   1.762       .  S
Cr900       O902   1.781       .  S
Cr901       O902   1.760       .  S
O903       Cr921   2.021       .  S
O903        C911   1.267       .  A
O904       Cr921   1.917       .  S
O904        C905   1.252       .  A
C905        O906   1.262       .  A
C905       C4102   1.449       .  S
O906       Cr922   1.999       .  S
O907       Cr922   1.927       .  S
O907        C908   1.250       .  A
C908        O909   1.288       .  A
C908       C3570   1.501       .  S
O909       Cr923   2.090       .  S
O910       Cr923   2.012       .  S
O910        C911   1.268       .  A
C911       C3727   1.517       .  S
O912       Cr921   1.951       .  S
O912        C920   1.256       .  A
O913       Cr921   1.999       .  S
O913        C914   1.266       .  A
C914        O915   1.249       .  A
C914       C5001   1.450       .  S
O915       Cr922   1.948       .  S
O916       Cr922   1.991       .  S
O916        C917   1.258       .  A
C917        O918   1.267       .  A
C917       C3685   1.508       .  S
O918       Cr923   2.015       .  S
O919       Cr923   2.084       .  S
O919        C920   1.286       .  A
C920       C3556   1.519       .  S
Cr921       O924   1.769       .  S
Cr922       O924   1.788       .  S
Cr923       O924   1.758       .  S
O925       Cr943   2.026       .  S
O925        C933   1.272       .  A
O926       Cr943   2.086       .  S
O926        C927   1.288       .  A
C927        O928   1.258       .  A
C927       C3542   1.502       .  S
O928       Cr944   1.955       .  S
O929       Cr944   1.977       .  S
O929        C930   1.251       .  A
C930        O931   1.257       .  A
C930       C5281   1.440       .  S
O931       Cr945   1.960       .  S
O932       Cr945   2.006       .  S
O932        C933   1.266       .  A
C933       C4525   1.517       .  S
O934       Cr943   2.063       .  S
O934        C942   1.281       .  A
O935       Cr943   2.033       .  S
O935        C936   1.265       .  A
C936        O937   1.250       .  A
C936       C3573   1.506       .  S
O937       Cr944   1.977       .  S
O938       Cr944   1.970       .  S
O938        C939   1.261       .  A
C939        O940   1.267       .  A
C939       C3741   1.456       .  S
O940       Cr945   1.995       .  S
O941       Cr945   1.983       .  S
O941        C942   1.261       .  A
C942       C4088   1.528       .  S
Cr943       O946   1.767       .  S
Cr944       O946   1.789       .  S
Cr945       O946   1.764       .  S
O947       Cr965   2.022       .  S
O947        C955   1.268       .  A
O948       Cr965   1.930       .  S
O948        C949   1.252       .  A
C949        O950   1.260       .  A
C949       C4959   1.440       .  S
O950       Cr966   1.997       .  S
O951       Cr966   1.914       .  S
O951        C952   1.241       .  A
C952        O953   1.292       .  A
C952       C3601   1.514       .  S
O953       Cr967   2.104       .  S
O954       Cr967   2.020       .  S
O954        C955   1.271       .  A
C955       C5379   1.519       .  S
O956       Cr965   1.953       .  S
O956        C964   1.255       .  A
O957       Cr965   2.014       .  S
O957        C958   1.270       .  A
C958        O959   1.248       .  A
C958       C4567   1.454       .  S
O959       Cr966   1.928       .  S
O960       Cr966   1.998       .  S
O960        C961   1.260       .  A
C961        O962   1.266       .  A
C961       C3545   1.510       .  S
O962       Cr967   2.025       .  S
O963       Cr967   2.080       .  S
O963        C964   1.285       .  A
C964       C5264   1.520       .  S
Cr965       O968   1.758       .  S
Cr966       O968   1.781       .  S
Cr967       O968   1.759       .  S
O969       Cr987   1.976       .  S
O969        C977   1.250       .  A
O970       Cr987   1.970       .  S
O970        C971   1.257       .  A
C971        O972   1.260       .  A
C971       C3528   1.444       .  S
O972       Cr988   1.972       .  S
O973       Cr988   1.963       .  S
O973        C974   1.260       .  A
C974        O975   1.275       .  A
C974       C1678   1.459       .  S
O975       Cr989   2.026       .  S
O976       Cr989   2.047       .  S
O976        C977   1.268       .  A
C977       C3486   1.522       .  S
O978       Cr987   1.931       .  S
O978        C986   1.252       .  A
O979       Cr987   1.968       .  S
O979        C980   1.258       .  A
C980        O981   1.261       .  A
C980       C3514   1.445       .  S
O981       Cr988   1.967       .  S
O982       Cr988   1.978       .  S
O982        C983   1.254       .  A
C983        O984   1.269       .  A
C983       C1159   1.490       .  S
O984       Cr989   2.027       .  S
O985       Cr989   2.068       .  S
O985        C986   1.286       .  A
C986       C3500   1.505       .  S
Cr987       O990   1.793       .  S
Cr988       O990   1.766       .  S
Cr989       O990   1.764       .  S
O991      Cr1009   1.977       .  S
O991        C999   1.254       .  A
O992      Cr1009   1.961       .  S
O992        C993   1.251       .  A
C993        O994   1.258       .  A
C993       C3458   1.442       .  S
O994      Cr1010   1.980       .  S
O995      Cr1010   1.983       .  S
O995        C996   1.267       .  A
C996        O997   1.273       .  A
C996       C1392   1.463       .  S
O997      Cr1011   2.015       .  S
O998      Cr1011   2.047       .  S
O998        C999   1.269       .  A
C999       C3444   1.518       .  S
O1000     Cr1009   1.931       .  S
O1000      C1008   1.250       .  A
O1001     Cr1009   1.983       .  S
O1001      C1002   1.262       .  A
C1002      O1003   1.265       .  A
C1002      C3472   1.462       .  S
O1003     Cr1010   1.969       .  S
O1004     Cr1010   1.983       .  S
O1004      C1005   1.252       .  A
C1005      O1006   1.271       .  A
C1005      C1621   1.489       .  S
O1006     Cr1011   2.027       .  S
O1007     Cr1011   2.057       .  S
O1007      C1008   1.281       .  A
C1008      C3430   1.497       .  S
Cr1009     O1012   1.792       .  S
Cr1010     O1012   1.767       .  S
Cr1011     O1012   1.762       .  S
O1013     Cr1031   1.994       .  S
O1013      C1021   1.259       .  A
O1014     Cr1031   1.939       .  S
O1014      C1015   1.255       .  A
C1015      O1016   1.262       .  A
C1015      C4497   1.441       .  S
O1016     Cr1032   1.997       .  S
O1017     Cr1032   1.911       .  S
O1017      C1018   1.244       .  A
C1018      O1019   1.288       .  A
C1018      C3402   1.505       .  S
O1019     Cr1033   2.088       .  S
O1020     Cr1033   2.051       .  S
O1020      C1021   1.274       .  A
C1021      C3377   1.520       .  S
O1022     Cr1031   1.949       .  S
O1022      C1030   1.260       .  A
O1023     Cr1031   1.994       .  S
O1023      C1024   1.262       .  A
C1024      O1025   1.249       .  A
C1024      C3391   1.446       .  S
O1025     Cr1032   1.939       .  S
O1026     Cr1032   1.987       .  S
O1026      C1027   1.259       .  A
C1027      O1028   1.273       .  A
C1027      C3416   1.513       .  S
O1028     Cr1033   2.047       .  S
O1029     Cr1033   2.079       .  S
O1029      C1030   1.288       .  A
C1030      C3503   1.511       .  S
Cr1031     O1034   1.763       .  S
Cr1032     O1034   1.776       .  S
Cr1033     O1034   1.758       .  S
O1035     Cr1053   2.087       .  S
O1035      C1043   1.289       .  A
O1036     Cr1053   2.022       .  S
O1036      C1037   1.267       .  A
C1037      O1038   1.265       .  A
C1037      C3419   1.517       .  S
O1038     Cr1054   2.007       .  S
O1039     Cr1054   1.915       .  S
O1039      C1040   1.244       .  A
C1040      O1041   1.266       .  A
C1040      C3517   1.427       .  S
O1041     Cr1055   2.006       .  S
O1042     Cr1055   1.961       .  S
O1042      C1043   1.257       .  A
C1043      C3349   1.524       .  S
O1044     Cr1053   2.034       .  S
O1044      C1052   1.275       .  A
O1045     Cr1053   2.118       .  S
O1045      C1046   1.291       .  A
C1046      O1047   1.242       .  A
C1046      C3360   1.518       .  S
O1047     Cr1054   1.915       .  S
O1048     Cr1054   2.001       .  S
O1048      C1049   1.261       .  A
C1049      O1050   1.253       .  A
C1049      C5337   1.447       .  S
O1050     Cr1055   1.950       .  S
O1051     Cr1055   2.003       .  S
O1051      C1052   1.264       .  A
C1052      C5085   1.512       .  S
Cr1053     O1056   1.760       .  S
Cr1054     O1056   1.772       .  S
Cr1055     O1056   1.761       .  S
O1057     Cr1075   2.071       .  S
O1057      C1065   1.286       .  A
O1058     Cr1075   2.044       .  S
O1058      C1059   1.275       .  A
C1059      O1060   1.261       .  A
C1059      C3332   1.520       .  S
O1060     Cr1076   1.990       .  S
O1061     Cr1076   1.943       .  S
O1061      C1062   1.248       .  A
C1062      O1063   1.259       .  A
C1062      C3318   1.455       .  S
O1063     Cr1077   1.990       .  S
O1064     Cr1077   1.965       .  S
O1064      C1065   1.266       .  A
C1065      C4875   1.515       .  S
O1066     Cr1075   2.050       .  S
O1066      C1074   1.273       .  A
O1067     Cr1075   2.067       .  S
O1067      C1068   1.282       .  A
C1068      O1069   1.244       .  A
C1068      C3405   1.487       .  S
O1069     Cr1076   1.915       .  S
O1070     Cr1076   1.999       .  S
O1070      C1071   1.266       .  A
C1071      O1072   1.257       .  A
C1071      C3304   1.459       .  S
O1072     Cr1077   1.945       .  S
O1073     Cr1077   1.999       .  S
O1073      C1074   1.257       .  A
C1074      C4483   1.529       .  S
Cr1075     O1078   1.757       .  S
Cr1076     O1078   1.783       .  S
Cr1077     O1078   1.774       .  S
O1079     Cr1097   2.076       .  S
O1079      C1087   1.285       .  A
O1080     Cr1097   2.037       .  S
O1080      C1081   1.269       .  A
C1081      O1082   1.261       .  A
C1081      C3335   1.516       .  S
O1082     Cr1098   1.998       .  S
O1083     Cr1098   1.921       .  S
O1083      C1084   1.245       .  A
C1084      O1085   1.272       .  A
C1084      C4889   1.447       .  S
O1085     Cr1099   2.021       .  S
O1086     Cr1099   1.963       .  S
O1086      C1087   1.260       .  A
C1087      C3262   1.518       .  S
O1088     Cr1097   2.030       .  S
O1088      C1096   1.274       .  A
O1089     Cr1097   2.105       .  S
O1089      C1090   1.290       .  A
C1090      O1091   1.246       .  A
C1090      C3290   1.518       .  S
O1091     Cr1098   1.920       .  S
O1092     Cr1098   1.994       .  S
O1092      C1093   1.259       .  A
C1093      O1094   1.250       .  A
C1093      C3276   1.466       .  S
O1094     Cr1099   1.955       .  S
O1095     Cr1099   2.010       .  S
O1095      C1096   1.266       .  A
C1096      C3447   1.522       .  S
Cr1097     O1100   1.764       .  S
Cr1098     O1100   1.790       .  S
Cr1099     O1100   1.782       .  S
O1101     Cr1119   1.963       .  S
O1101      C1109   1.259       .  A
O1102     Cr1119   2.006       .  S
O1102      C1103   1.268       .  A
C1103      O1104   1.250       .  A
C1103      C3461   1.444       .  S
O1104     Cr1120   1.933       .  S
O1105     Cr1120   1.985       .  S
O1105      C1106   1.255       .  A
C1106      O1107   1.269       .  A
C1106      C3293   1.506       .  S
O1107     Cr1121   2.028       .  S
O1108     Cr1121   2.064       .  S
O1108      C1109   1.281       .  A
C1109      C3234   1.513       .  S
O1110     Cr1119   2.014       .  S
O1110      C1118   1.267       .  A
O1111     Cr1119   1.945       .  S
O1111      C1112   1.252       .  A
C1112      O1113   1.255       .  A
C1112      C5169   1.447       .  S
O1113     Cr1120   1.984       .  S
O1114     Cr1120   1.935       .  S
O1114      C1115   1.254       .  A
C1115      O1116   1.287       .  A
C1115      C3248   1.512       .  S
O1116     Cr1121   2.080       .  S
O1117     Cr1121   2.018       .  S
O1117      C1118   1.270       .  A
C1118      C4693   1.513       .  S
Cr1119     O1122   1.781       .  S
Cr1120     O1122   1.787       .  S
Cr1121     O1122   1.761       .  S
O1123     Cr1141   1.965       .  S
O1123      C1131   1.257       .  A
O1124     Cr1141   2.002       .  S
O1124      C1125   1.267       .  A
C1125      O1126   1.246       .  A
C1125      C5127   1.437       .  S
O1126     Cr1142   1.932       .  S
O1127     Cr1142   1.991       .  S
O1127      C1128   1.257       .  A
C1128      O1129   1.269       .  A
C1128      C3363   1.505       .  S
O1129     Cr1143   2.022       .  S
O1130     Cr1143   2.084       .  S
O1130      C1131   1.286       .  A
C1131      C5323   1.525       .  S
O1132     Cr1141   2.017       .  S
O1132      C1140   1.269       .  A
O1133     Cr1141   1.933       .  S
O1133      C1134   1.251       .  A
C1134      O1135   1.258       .  A
C1134      C4735   1.467       .  S
O1135     Cr1142   1.992       .  S
O1136     Cr1142   1.940       .  S
O1136      C1137   1.253       .  A
C1137      O1138   1.288       .  A
C1137      C3251   1.501       .  S
O1138     Cr1143   2.081       .  S
O1139     Cr1143   2.024       .  S
O1139      C1140   1.270       .  A
C1140      C5155   1.519       .  S
Cr1141     O1144   1.778       .  S
Cr1142     O1144   1.800       .  S
Cr1143     O1144   1.762       .  S
O1145     Cr1163   1.982       .  S
O1145      C1153   1.257       .  A
O1146     Cr1163   1.958       .  S
O1146      C1147   1.253       .  A
C1147      O1148   1.271       .  A
C1147      C3220   1.452       .  S
O1148     Cr1164   2.008       .  S
O1149     Cr1164   1.964       .  S
O1149      C1150   1.258       .  A
C1150      O1151   1.273       .  A
C1150      C1216   1.470       .  S
O1151     Cr1165   2.027       .  S
O1152     Cr1165   2.014       .  S
O1152      C1153   1.261       .  A
C1153      C3206   1.515       .  S
O1154     Cr1163   1.962   1_565  S
O1154      C1162   1.256       .  A
O1155     Cr1163   1.981       .  S
O1155      C1156   1.255       .  A
C1156      O1157   1.256       .  A
C1156      C3388   1.434   1_545  S
O1157     Cr1164   1.955       .  S
O1158     Cr1164   2.024       .  S
O1158      C1159   1.264   1_545  A
C1159      O1160   1.267       .  A
O1160     Cr1165   1.994   1_565  S
O1161     Cr1165   2.067   1_565  S
O1161      C1162   1.284       .  A
C1162      C3346   1.514       .  S
Cr1163     O1166   1.796       .  S
Cr1164     O1166   1.768       .  S
Cr1165     O1166   1.765       .  S
O1167     Cr1185   1.985       .  S
O1167      C1175   1.257       .  A
O1168     Cr1185   1.952       .  S
O1168      C1169   1.250       .  A
C1169      O1170   1.267       .  A
C1169      C4203   1.437       .  S
O1170     Cr1186   1.987       .  S
O1171     Cr1186   1.967       .  S
O1171      C1172   1.258       .  A
C1172      O1173   1.277       .  A
O1173     Cr1187   2.039       .  S
O1174     Cr1187   2.019       .  S
O1174      C1175   1.263       .  A
C1175      C4161   1.516       .  S
O1176     Cr1185   1.949   1_554  S
O1176      C1184   1.255       .  A
O1177     Cr1185   1.989       .  S
O1177      C1178   1.258   1_556  A
C1178      O1179   1.259       .  A
C1178      C3195   1.450       .  S
O1179     Cr1186   1.969   1_554  S
O1180     Cr1186   2.002   1_554  S
O1180      C1181   1.259       .  A
C1181      O1182   1.268       .  A
C1181      C1203   1.475       .  S
O1182     Cr1187   2.004   1_554  S
O1183     Cr1187   2.075   1_554  S
O1183      C1184   1.285       .  A
C1184      C3178   1.510       .  S
Cr1185     O1188   1.789       .  S
Cr1186     O1188   1.767       .  S
Cr1187     O1188   1.761       .  S
O1189     Cr1207   1.944       .  S
O1189      C1197   1.254       .  A
O1190     Cr1207   1.986       .  S
O1190      C1191   1.258       .  A
C1191      O1192   1.256       .  A
C1191      C3164   1.439       .  S
O1192     Cr1208   1.964       .  S
O1193     Cr1208   2.004       .  S
O1193      C1194   1.260       .  A
C1194      O1195   1.268       .  A
C1194      C1590   1.484       .  S
O1195     Cr1209   2.013       .  S
O1196     Cr1209   2.078       .  S
O1196      C1197   1.288       .  A
C1197      C3122   1.510       .  S
O1198     Cr1207   1.985       .  S
O1198      C1206   1.257       .  A
O1199     Cr1207   1.952       .  S
O1199      C1200   1.250       .  A
C1200      O1201   1.268       .  A
C1200      C3150   1.441       .  S
O1201     Cr1208   1.997       .  S
O1202     Cr1208   1.958       .  S
O1202      C1203   1.257       .  A
C1203      O1204   1.278       .  A
O1204     Cr1209   2.042       .  S
O1205     Cr1209   2.036       .  S
O1205      C1206   1.264       .  A
C1206      C3136   1.517       .  S
Cr1207     O1210   1.791       .  S
Cr1208     O1210   1.767       .  S
Cr1209     O1210   1.762       .  S
O1211     Cr1229   1.964       .  S
O1211      C1219   1.256       .  A
O1212     Cr1229   1.982       .  S
O1212      C1213   1.257       .  A
C1213      O1214   1.255       .  A
C1213      C3094   1.431       .  S
O1214     Cr1230   1.952       .  S
O1215     Cr1230   2.007       .  S
O1215      C1216   1.260       .  A
C1216      O1217   1.262       .  A
O1217     Cr1231   1.992       .  S
O1218     Cr1231   2.079       .  S
O1218      C1219   1.287       .  A
C1219      C3080   1.528       .  S
O1220     Cr1229   1.985       .  S
O1220      C1228   1.259       .  A
O1221     Cr1229   1.961       .  S
O1221      C1222   1.253       .  A
C1222      O1223   1.269       .  A
C1222      C3108   1.447       .  S
O1223     Cr1230   1.995       .  S
O1224     Cr1230   1.950       .  S
O1224      C1225   1.255       .  A
C1225      O1226   1.280       .  A
C1225      C1687   1.476       .  S
O1226     Cr1231   2.054       .  S
O1227     Cr1231   2.015       .  S
O1227      C1228   1.263       .  A
C1228      C3066   1.517       .  S
Cr1229     O1232   1.790       .  S
Cr1230     O1232   1.763       .  S
Cr1231     O1232   1.760       .  S
O1233     Cr1251   2.021       .  S
O1233      C1241   1.272       .  A
O1234     Cr1251   2.077       .  S
O1234      C1235   1.287       .  A
C1235      O1236   1.252       .  A
C1235      C3052   1.500       .  S
O1236     Cr1252   1.933       .  S
O1237     Cr1252   1.999       .  S
O1237      C1238   1.259       .  A
C1238      O1239   1.251       .  A
C1238      C3192   1.444       .  S
O1239     Cr1253   1.940       .  S
O1240     Cr1253   2.018       .  S
O1240      C1241   1.269       .  A
C1241      C3139   1.519       .  S
O1242     Cr1251   2.065       .  S
O1242      C1250   1.281       .  A
O1243     Cr1251   2.023       .  S
O1243      C1244   1.268       .  A
C1244      O1245   1.261       .  A
C1244      C3038   1.517       .  S
O1245     Cr1252   2.002       .  S
O1246     Cr1252   1.920       .  S
O1246      C1247   1.245       .  A
C1247      O1248   1.267       .  A
C1247      C5071   1.431       .  S
O1248     Cr1253   2.008       .  S
O1249     Cr1253   1.961       .  S
O1249      C1250   1.257       .  A
C1250      C5141   1.509       .  S
Cr1251     O1254   1.760       .  S
Cr1252     O1254   1.791       .  S
Cr1253     O1254   1.768       .  S
O1255     Cr1273   2.076       .  S
O1255      C1263   1.285       .  A
O1256     Cr1273   2.043       .  S
O1256      C1257   1.271       .  A
C1257      O1258   1.262       .  A
C1257      C3010   1.520       .  S
O1258     Cr1274   2.000       .  S
O1259     Cr1274   1.925       .  S
O1259      C1260   1.244       .  A
C1260      O1261   1.270       .  A
C1260      C4511   1.453       .  S
O1261     Cr1275   2.023       .  S
O1262     Cr1275   1.961       .  S
O1262      C1263   1.258       .  A
C1263      C5421   1.525       .  S
O1264     Cr1273   2.034       .  S
O1264      C1272   1.274       .  A
O1265     Cr1273   2.095       .  S
O1265      C1266   1.288       .  A
C1266      O1267   1.250       .  A
C1266      C3024   1.513       .  S
O1267     Cr1274   1.927       .  S
O1268     Cr1274   1.996       .  S
O1268      C1269   1.260       .  A
C1269      O1270   1.252       .  A
C1269      C3223   1.466       .  S
O1270     Cr1275   1.951       .  S
O1271     Cr1275   2.017       .  S
O1271      C1272   1.267       .  A
C1272      C3083   1.529       .  S
Cr1273     O1276   1.766       .  S
Cr1274     O1276   1.792       .  S
Cr1275     O1276   1.782       .  S
O1277     Cr1295   2.027       .  S
O1277      C1285   1.269       .  A
O1278     Cr1295   2.081       .  S
O1278      C1279   1.287       .  A
C1279      O1280   1.250       .  A
C1279      C3055   1.507       .  S
O1280     Cr1296   1.922       .  S
O1281     Cr1296   1.989       .  S
O1281      C1282   1.260       .  A
C1282      O1283   1.255       .  A
C1282      C3153   1.452       .  S
O1283     Cr1297   1.949       .  S
O1284     Cr1297   1.998       .  S
O1284      C1285   1.259       .  A
C1285      C3181   1.508       .  S
O1286     Cr1295   2.085       .  S
O1286      C1294   1.288       .  A
O1287     Cr1295   2.021       .  S
O1287      C1288   1.268       .  A
C1288      O1289   1.258       .  A
C1288      C3027   1.504       .  S
O1289     Cr1296   1.990       .  S
O1290     Cr1296   1.932       .  S
O1290      C1291   1.249       .  A
C1291      O1292   1.263       .  A
C1291      C3097   1.440       .  S
O1292     Cr1297   1.995       .  S
O1293     Cr1297   1.955       .  S
O1293      C1294   1.260       .  A
C1294      C3209   1.520       .  S
Cr1295     O1298   1.758       .  S
Cr1296     O1298   1.785       .  S
Cr1297     O1298   1.776       .  S
O1299     Cr1317   2.014       .  S
O1299      C1307   1.270       .  A
O1300     Cr1317   2.107       .  S
O1300      C1301   1.293       .  A
C1301      O1302   1.252       .  A
C1301      C2982   1.524       .  S
O1302     Cr1318   1.939       .  S
O1303     Cr1318   1.998       .  S
O1303      C1304   1.257       .  A
C1304      O1305   1.251       .  A
C1304      C2968   1.448       .  S
O1305     Cr1319   1.948       .  S
O1306     Cr1319   2.002       .  S
O1306      C1307   1.264       .  A
C1307      C3433   1.500       .  S
O1308     Cr1317   2.089       .  S
O1308      C1316   1.287       .  A
O1309     Cr1317   2.008       .  S
O1309      C1310   1.263       .  A
C1310      O1311   1.260       .  A
C1310      C2996   1.516       .  S
O1311     Cr1318   1.999       .  S
O1312     Cr1318   1.925       .  S
O1312      C1313   1.245       .  A
C1313      O1314   1.268       .  A
C1313      C2954   1.434       .  S
O1314     Cr1319   2.007       .  S
O1315     Cr1319   1.968       .  S
O1315      C1316   1.258       .  A
C1316      C4410   1.531       .  S
Cr1317     O1320   1.764       .  S
Cr1318     O1320   1.798       .  S
Cr1319     O1320   1.771       .  S
O1321     Cr1339   2.087       .  S
O1321      C1329   1.289       .  A
O1322     Cr1339   2.048       .  S
O1322      C1323   1.273       .  A
C1323      O1324   1.258       .  A
C1323      C3013   1.518       .  S
O1324     Cr1340   1.989       .  S
O1325     Cr1340   1.935       .  S
O1325      C1326   1.249       .  A
C1326      O1327   1.263       .  A
C1326      C5463   1.443       .  S
O1327     Cr1341   2.003       .  S
O1328     Cr1341   1.954       .  S
O1328      C1329   1.259       .  A
C1329      C4469   1.519       .  S
O1330     Cr1339   2.046       .  S
O1330      C1338   1.272       .  A
O1331     Cr1339   2.097       .  S
O1331      C1332   1.288       .  A
C1332      O1333   1.250       .  A
C1332      C2999   1.512       .  S
O1333     Cr1340   1.918       .  S
O1334     Cr1340   1.996       .  S
O1334      C1335   1.261       .  A
C1335      O1336   1.254       .  A
C1335      C4455   1.446       .  S
O1336     Cr1341   1.937       .  S
O1337     Cr1341   2.003       .  S
O1337      C1338   1.262       .  A
C1338      C2943   1.524       .  S
Cr1339     O1342   1.761       .  S
Cr1340     O1342   1.779       .  S
Cr1341     O1342   1.769       .  S
O1343     Cr1361   2.045       .  S
O1343      C1351   1.266       .  A
O1344     Cr1361   2.077       .  S
O1344      C1345   1.287       .  A
C1345      O1346   1.252       .  A
C1345      C2985   1.522       .  S
O1346     Cr1362   1.945       .  S
O1347     Cr1362   1.988       .  S
O1347      C1348   1.265       .  A
C1348      O1349   1.259       .  A
C1348      C3475   1.454       .  S
O1349     Cr1363   1.950       .  S
O1350     Cr1363   1.989       .  S
O1350      C1351   1.251       .  A
C1351      C2926   1.516       .  S
O1352     Cr1361   2.093       .  S
O1352      C1360   1.295       .  A
O1353     Cr1361   2.049       .  S
O1353      C1354   1.274       .  A
C1354      O1355   1.256       .  A
C1354      C3041   1.508       .  S
O1355     Cr1362   1.974       .  S
O1356     Cr1362   1.963       .  S
O1356      C1357   1.251       .  A
C1357      O1358   1.255       .  A
C1357      C5183   1.458       .  S
O1358     Cr1363   1.985       .  S
O1359     Cr1363   1.960       .  S
O1359      C1360   1.267       .  A
C1360      C5029   1.521       .  S
Cr1361     O1364   1.764       .  S
Cr1362     O1364   1.790       .  S
Cr1363     O1364   1.783       .  S
O1365     Cr1383   1.955   1_554  S
O1365      C1373   1.256       .  A
O1366     Cr1383   1.965   1_554  S
O1366      C1367   1.256       .  A
C1367      O1368   1.258       .  A
C1367      C2912   1.448       .  S
O1368     Cr1384   1.966   1_554  S
O1369     Cr1384   1.980   1_554  S
O1369      C1370   1.256       .  A
C1370      O1371   1.267       .  A
C1370      C1436   1.483       .  S
O1371     Cr1385   2.016   1_554  S
O1372     Cr1385   2.081   1_554  S
O1372      C1373   1.289       .  A
C1373      C2898   1.517       .  S
O1374     Cr1383   1.975       .  S
O1374      C1382   1.250       .  A
O1375     Cr1383   1.977       .  S
O1375      C1376   1.258       .  A
C1376      O1377   1.264       .  A
C1376      C3629   1.449       .  S
O1377     Cr1384   1.984       .  S
O1378     Cr1384   1.966       .  S
O1378      C1379   1.260       .  A
C1379      O1380   1.279       .  A
O1380     Cr1385   2.044       .  S
O1381     Cr1385   2.029       .  S
O1381      C1382   1.263       .  A
C1382      C3587   1.513       .  S
Cr1383     O1386   1.793       .  S
Cr1384     O1386   1.769       .  S
Cr1385     O1386   1.764       .  S
O1387     Cr1405   1.991       .  S
O1387      C1395   1.263       .  A
O1388     Cr1405   1.968       .  S
O1388      C1389   1.254       .  A
C1389      O1390   1.263       .  A
C1389      C3279   1.452       .  S
O1390     Cr1406   1.985       .  S
O1391     Cr1406   1.967       .  S
O1391      C1392   1.256       .  A
C1392      O1393   1.273       .  A
O1393     Cr1407   2.033       .  S
O1394     Cr1407   2.009       .  S
O1394      C1395   1.264       .  A
C1395      C3237   1.508       .  S
O1396     Cr1405   1.962   1_455  S
O1396      C1404   1.255       .  A
O1397     Cr1405   1.982       .  S
O1397      C1398   1.260       .  A
C1398      O1399   1.258       .  A
C1398      C2884   1.433   1_655  S
O1399     Cr1406   1.955       .  S
O1400     Cr1406   2.015       .  S
O1400      C1401   1.262   1_655  A
C1401      O1402   1.267       .  A
C1401      C1423   1.473       .  S
O1402     Cr1407   1.996   1_455  S
O1403     Cr1407   2.059       .  S
O1403      C1404   1.279   1_655  A
C1404      C2870   1.517       .  S
Cr1405     O1408   1.782       .  S
Cr1406     O1408   1.764       .  S
Cr1407     O1408   1.763       .  S
O1409     Cr1427   1.956       .  S
O1409      C1417   1.258       .  A
O1410     Cr1427   1.989       .  S
O1410      C1411   1.258       .  A
C1411      O1412   1.254       .  A
C1411      C2856   1.437       .  S
O1412     Cr1428   1.954       .  S
O1413     Cr1428   2.006       .  S
O1413      C1414   1.262       .  A
C1414      O1415   1.267       .  A
C1414      C1612   1.479       .  S
O1415     Cr1429   2.007       .  S
O1416     Cr1429   2.073       .  S
O1416      C1417   1.285       .  A
C1417      C2814   1.522       .  S
O1418     Cr1427   1.985       .  S
O1418      C1426   1.257       .  A
O1419     Cr1427   1.960       .  S
O1419      C1420   1.253       .  A
C1420      O1421   1.269       .  A
C1420      C2842   1.448       .  S
O1421     Cr1428   1.994       .  S
O1422     Cr1428   1.953       .  S
O1422      C1423   1.255       .  A
C1423      O1424   1.276       .  A
O1424     Cr1429   2.044       .  S
O1425     Cr1429   2.024       .  S
O1425      C1426   1.265       .  A
C1426      C2828   1.514       .  S
Cr1427     O1430   1.790       .  S
Cr1428     O1430   1.762       .  S
Cr1429     O1430   1.764       .  S
O1431     Cr1449   1.952       .  S
O1431      C1439   1.254       .  A
O1432     Cr1449   1.994       .  S
O1432      C1433   1.260       .  A
C1433      O1434   1.256       .  A
C1433      C2789   1.441       .  S
O1434     Cr1450   1.955       .  S
O1435     Cr1450   2.020       .  S
O1435      C1436   1.265       .  A
C1436      O1437   1.267       .  A
O1437     Cr1451   1.988       .  S
O1438     Cr1451   2.075       .  S
O1438      C1439   1.286       .  A
C1439      C2775   1.512       .  S
O1440     Cr1449   1.989       .  S
O1440      C1448   1.260       .  A
O1441     Cr1449   1.953       .  S
O1441      C1442   1.249       .  A
C1442      O1443   1.269       .  A
C1442      C2803   1.442       .  S
O1443     Cr1450   1.996       .  S
O1444     Cr1450   1.965       .  S
O1444      C1445   1.256       .  A
C1445      O1446   1.274       .  A
C1445      C1665   1.471       .  S
O1446     Cr1451   2.042       .  S
O1447     Cr1451   2.020       .  S
O1447      C1448   1.263       .  A
C1448      C2761   1.517       .  S
Cr1449     O1452   1.791       .  S
Cr1450     O1452   1.762       .  S
Cr1451     O1452   1.763       .  S
O1453     Cr1471   2.028       .  S
O1453      C1461   1.272       .  A
O1454     Cr1471   2.106       .  S
O1454      C1455   1.294       .  A
C1455      O1456   1.245       .  A
C1455      C2730   1.518       .  S
O1456     Cr1472   1.921       .  S
O1457     Cr1472   2.006       .  S
O1457      C1458   1.262       .  A
C1458      O1459   1.253       .  A
C1458      C4791   1.447       .  S
O1459     Cr1473   1.939       .  S
O1460     Cr1473   2.012       .  S
O1460      C1461   1.266       .  A
C1461      C5309   1.519       .  S
O1462     Cr1471   2.089       .  S
O1462      C1470   1.289       .  A
O1463     Cr1471   2.030       .  S
O1463      C1464   1.267       .  A
C1464      O1465   1.260       .  A
C1464      C2747   1.514       .  S
O1465     Cr1472   1.998       .  S
O1466     Cr1472   1.928       .  S
O1466      C1467   1.245       .  A
C1467      O1468   1.264       .  A
C1467      C2915   1.429       .  S
O1468     Cr1473   2.002       .  S
O1469     Cr1473   1.958       .  S
O1469      C1470   1.257       .  A
C1470      C2772   1.524       .  S
Cr1471     O1474   1.759       .  S
Cr1472     O1474   1.785       .  S
Cr1473     O1474   1.765       .  S
O1475     Cr1493   2.102       .  S
O1475      C1483   1.294       .  A
O1476     Cr1493   2.033       .  S
O1476      C1477   1.270       .  A
C1477      O1478   1.254       .  A
C1477      C2716   1.506       .  S
O1478     Cr1494   1.973       .  S
O1479     Cr1494   1.957       .  S
O1479      C1480   1.252       .  A
C1480      O1481   1.258       .  A
C1480      C2887   1.461       .  S
O1481     Cr1495   1.986       .  S
O1482     Cr1495   1.945       .  S
O1482      C1483   1.259       .  A
C1483      C2831   1.521       .  S
O1484     Cr1493   2.039       .  S
O1484      C1492   1.268       .  A
O1485     Cr1493   2.101       .  S
O1485      C1486   1.292       .  A
C1486      O1487   1.250       .  A
C1486      C2705   1.527       .  S
O1487     Cr1494   1.929       .  S
O1488     Cr1494   1.987       .  S
O1488      C1489   1.261       .  A
C1489      O1490   1.257       .  A
C1489      C4903   1.432       .  S
O1490     Cr1495   1.938       .  S
O1491     Cr1495   1.986       .  S
O1491      C1492   1.253       .  A
C1492      C5253   1.507       .  S
Cr1493     O1496   1.759       .  S
Cr1494     O1496   1.784       .  S
Cr1495     O1496   1.768       .  S
O1497     Cr1515   2.023       .  S
O1497      C1505   1.266       .  A
O1498     Cr1515   2.094       .  S
O1498      C1499   1.289       .  A
C1499      O1500   1.250       .  A
C1499      C2719   1.515       .  S
O1500     Cr1516   1.928       .  S
O1501     Cr1516   1.989       .  S
O1501      C1502   1.260       .  A
C1502      O1503   1.255       .  A
C1502      C2845   1.462       .  S
O1503     Cr1517   1.950       .  S
O1504     Cr1517   2.008       .  S
O1504      C1505   1.262       .  A
C1505      C2873   1.518       .  S
O1506     Cr1515   2.094       .  S
O1506      C1514   1.292       .  A
O1507     Cr1515   2.030       .  S
O1507      C1508   1.269       .  A
C1508      O1509   1.260       .  A
C1508      C2744   1.510       .  S
O1509     Cr1516   1.995       .  S
O1510     Cr1516   1.934       .  S
O1510      C1511   1.250       .  A
C1511      O1512   1.264       .  A
C1511      C2786   1.454       .  S
O1512     Cr1517   2.010       .  S
O1513     Cr1517   1.963       .  S
O1513      C1514   1.261       .  A
C1514      C2901   1.529       .  S
Cr1515     O1518   1.761       .  S
Cr1516     O1518   1.784       .  S
Cr1517     O1518   1.784       .  S
O1519     Cr1537   1.953       .  S
O1519      C1527   1.253       .  A
O1520     Cr1537   2.022       .  S
O1520      C1521   1.271       .  A
C1521      O1522   1.245       .  A
C1521      C2649   1.439       .  S
O1522     Cr1538   1.913       .  S
O1523     Cr1538   1.996       .  S
O1523      C1524   1.260       .  A
C1524      O1525   1.267       .  A
C1524      C2691   1.510       .  S
O1525     Cr1539   2.031       .  S
O1526     Cr1539   2.090       .  S
O1526      C1527   1.287       .  A
C1527      C3489   1.527       .  S
O1528     Cr1537   2.016       .  S
O1528      C1536   1.269       .  A
O1529     Cr1537   1.946       .  S
O1529      C1530   1.250       .  A
C1530      O1531   1.258       .  A
C1530      C2660   1.451       .  S
O1531     Cr1538   2.004       .  S
O1532     Cr1538   1.915       .  S
O1532      C1533   1.245       .  A
C1533      O1534   1.293       .  A
C1533      C2674   1.507       .  S
O1534     Cr1539   2.104       .  S
O1535     Cr1539   2.026       .  S
O1535      C1536   1.272       .  A
C1536      C3713   1.519       .  S
Cr1537     O1540   1.762       .  S
Cr1538     O1540   1.785       .  S
Cr1539     O1540   1.766       .  S
O1541     Cr1559   2.031       .  S
O1541      C1549   1.271       .  A
O1542     Cr1559   2.106       .  S
O1542      C1543   1.293       .  A
C1543      O1544   1.245       .  A
C1543      C2733   1.511       .  S
O1544     Cr1560   1.916       .  S
O1545     Cr1560   1.993       .  S
O1545      C1546   1.260       .  A
C1546      O1547   1.253       .  A
C1546      C5351   1.458       .  S
O1547     Cr1561   1.949       .  S
O1548     Cr1561   2.009       .  S
O1548      C1549   1.264       .  A
C1549      C4749   1.519       .  S
O1550     Cr1559   2.096       .  S
O1550      C1558   1.291       .  A
O1551     Cr1559   2.039       .  S
O1551      C1552   1.269       .  A
C1552      O1553   1.258       .  A
C1552      C2688   1.510       .  S
O1553     Cr1560   1.990       .  S
O1554     Cr1560   1.928       .  S
O1554      C1555   1.248       .  A
C1555      O1556   1.269       .  A
C1555      C3531   1.449       .  S
O1556     Cr1561   2.011       .  S
O1557     Cr1561   1.959       .  S
O1557      C1558   1.260       .  A
C1558      C2632   1.529       .  S
Cr1559     O1562   1.759       .  S
Cr1560     O1562   1.782       .  S
Cr1561     O1562   1.773       .  S
O1563     Cr1581   1.947       .  S
O1563      C1571   1.254       .  A
O1564     Cr1581   2.008       .  S
O1564      C1565   1.270       .  A
C1565      O1566   1.244       .  A
C1565      C5292   1.426       .  S
O1566     Cr1582   1.908       .  S
O1567     Cr1582   1.998       .  S
O1567      C1568   1.258       .  A
C1568      O1569   1.269       .  A
C1568      C2702   1.515       .  S
O1569     Cr1583   2.028       .  S
O1570     Cr1583   2.093       .  S
O1570      C1571   1.289       .  A
C1571      C4861   1.526       .  S
O1572     Cr1581   2.015       .  S
O1572      C1580   1.266       .  A
O1573     Cr1581   1.944       .  S
O1573      C1574   1.250       .  A
C1574      O1575   1.256       .  A
C1574      C3755   1.449       .  S
O1575     Cr1582   1.988       .  S
O1576     Cr1582   1.914       .  S
O1576      C1577   1.244       .  A
C1577      O1578   1.293       .  A
C1577      C2677   1.505       .  S
O1578     Cr1583   2.103       .  S
O1579     Cr1583   2.036       .  S
O1579      C1580   1.274       .  A
C1580      C2618   1.526       .  S
Cr1581     O1584   1.774       .  S
Cr1582     O1584   1.789       .  S
Cr1583     O1584   1.756       .  S
O1585     Cr1603   1.980   1_554  S
O1585      C1593   1.255       .  A
O1586     Cr1603   1.967   1_554  S
O1586      C1587   1.256       .  A
C1587      O1588   1.259       .  A
C1587      C2604   1.447       .  S
O1588     Cr1604   1.971   1_554  S
O1589     Cr1604   1.974   1_554  S
O1589      C1590   1.265       .  A
C1590      O1591   1.283       .  A
O1591     Cr1605   2.048   1_554  S
O1592     Cr1605   2.033   1_554  S
O1592      C1593   1.266       .  A
C1593      C2590   1.520       .  S
O1594     Cr1603   1.943       .  S
O1594      C1602   1.252       .  A
O1595     Cr1603   1.973       .  S
O1595      C1596   1.259       .  A
C1596      O1597   1.264       .  A
C1596      C3850   1.458       .  S
O1597     Cr1604   1.973       .  S
O1598     Cr1604   1.968       .  S
O1598      C1599   1.248       .  A
C1599      O1600   1.263       .  A
O1600     Cr1605   2.015       .  S
O1601     Cr1605   2.077       .  S
O1601      C1602   1.285       .  A
C1602      C3797   1.526       .  S
Cr1603     O1606   1.786       .  S
Cr1604     O1606   1.770       .  S
Cr1605     O1606   1.756       .  S
O1607     Cr1625   1.991   1_455  S
O1607      C1615   1.258       .  A
O1608     Cr1625   1.951   1_455  S
O1608      C1609   1.250       .  A
C1609      O1610   1.269       .  A
C1609      C2576   1.442       .  S
O1610     Cr1626   1.996   1_455  S
O1611     Cr1626   1.976   1_455  S
O1611      C1612   1.261       .  A
C1612      O1613   1.273   1_455  A
O1613     Cr1627   2.026       .  S
O1614     Cr1627   2.030   1_455  S
O1614      C1615   1.265       .  A
C1615      C2562   1.526       .  S
O1616     Cr1625   1.959       .  S
O1616      C1624   1.256       .  A
O1617     Cr1625   1.992       .  S
O1617      C1618   1.258       .  A
C1618      O1619   1.257       .  A
C1618      C2971   1.454       .  S
O1619     Cr1626   1.967       .  S
O1620     Cr1626   2.002       .  S
O1620      C1621   1.259       .  A
C1621      O1622   1.273       .  A
O1622     Cr1627   2.011       .  S
O1623     Cr1627   2.074       .  S
O1623      C1624   1.285       .  A
C1624      C2929   1.518       .  S
Cr1625     O1628   1.800       .  S
Cr1626     O1628   1.771       .  S
Cr1627     O1628   1.765       .  S
O1629     Cr1647   1.986       .  S
O1629      C1637   1.256       .  A
O1630     Cr1647   1.951       .  S
O1630      C1631   1.252       .  A
C1631      O1632   1.274       .  A
C1631      C2551   1.444       .  S
O1632     Cr1648   2.006       .  S
O1633     Cr1648   1.969       .  S
O1633      C1634   1.257       .  A
C1634      O1635   1.281       .  A
O1635     Cr1649   2.054       .  S
O1636     Cr1649   2.031       .  S
O1636      C1637   1.263       .  A
C1637      C2534   1.520       .  S
O1638     Cr1647   1.957   1_565  S
O1638      C1646   1.257       .  A
O1639     Cr1647   1.991       .  S
O1639      C1640   1.255       .  A
C1640      O1641   1.258       .  A
C1640      C2663   1.459   1_545  S
O1641     Cr1648   1.972       .  S
O1642     Cr1648   2.008       .  S
O1642      C1643   1.264   1_545  A
C1643      O1644   1.263       .  A
O1644     Cr1649   1.992   1_565  S
O1645     Cr1649   2.090   1_565  S
O1645      C1646   1.291       .  A
C1646      C2621   1.527       .  S
Cr1647     O1650   1.792       .  S
Cr1648     O1650   1.767       .  S
Cr1649     O1650   1.762       .  S
O1651     Cr1669   1.954       .  S
O1651      C1659   1.256       .  A
O1652     Cr1669   1.992       .  S
O1652      C1653   1.261       .  A
C1653      O1654   1.261       .  A
C1653      C3839   1.458       .  S
O1654     Cr1670   1.971       .  S
O1655     Cr1670   1.997       .  S
O1655      C1656   1.258       .  A
C1656      O1657   1.263       .  A
O1657     Cr1671   1.991       .  S
O1658     Cr1671   2.066       .  S
O1658      C1659   1.283       .  A
C1659      C3811   1.520       .  S
O1660     Cr1669   1.991   1_554  S
O1660      C1668   1.260       .  A
O1661     Cr1669   1.955   1_554  S
O1661      C1662   1.250       .  A
C1662      O1663   1.264       .  A
C1662      C2520   1.438       .  S
O1663     Cr1670   1.988   1_554  S
O1664     Cr1670   1.972   1_554  S
O1664      C1665   1.260       .  A
C1665      O1666   1.275       .  A
O1666     Cr1671   2.039   1_554  S
O1667     Cr1671   2.022   1_554  S
O1667      C1668   1.265       .  A
C1668      C2506   1.517       .  S
Cr1669     O1672   1.784       .  S
Cr1670     O1672   1.763       .  S
Cr1671     O1672   1.761       .  S
O1673     Cr1691   1.987       .  S
O1673      C1681   1.259   1_545  A
O1674     Cr1691   1.959   1_565  S
O1674      C1675   1.252       .  A
C1675      O1676   1.263       .  A
C1675      C2646   1.438       .  S
O1676     Cr1692   1.979   1_565  S
O1677     Cr1692   1.958   1_565  S
O1677      C1678   1.254       .  A
C1678      O1679   1.271       .  A
O1679     Cr1693   2.031   1_565  S
O1680     Cr1693   2.035   1_565  S
O1680      C1681   1.267       .  A
C1681      C2635   1.524       .  S
O1682     Cr1691   1.951       .  S
O1682      C1690   1.254       .  A
O1683     Cr1691   1.974       .  S
O1683      C1684   1.257       .  A
C1684      O1685   1.258       .  A
C1684      C2492   1.431       .  S
O1685     Cr1692   1.958       .  S
O1686     Cr1692   2.010       .  S
O1686      C1687   1.261       .  A
C1687      O1688   1.269       .  A
O1688     Cr1693   2.003       .  S
O1689     Cr1693   2.070       .  S
O1689      C1690   1.283       .  A
C1690      C2481   1.516       .  S
Cr1691     O1694   1.786       .  S
Cr1692     O1694   1.766       .  S
Cr1693     O1694   1.761       .  S
O1695     Cr1713   1.986       .  S
O1695      C1703   1.257       .  A
O1696     Cr1713   1.946       .  S
O1696      C1697   1.251       .  A
C1697      O1698   1.267       .  A
C1697      C2957   1.435       .  S
O1698     Cr1714   1.988       .  S
O1699     Cr1714   1.959       .  S
O1699      C1700   1.256       .  A
C1700      O1701   1.271       .  A
O1701     Cr1715   2.018       .  S
O1702     Cr1715   2.038       .  S
O1702      C1703   1.263       .  A
C1703      C2940   1.526       .  S
O1704     Cr1713   1.949   1_455  S
O1704      C1712   1.257       .  A
O1705     Cr1713   1.989       .  S
O1705      C1706   1.257   1_655  A
C1706      O1707   1.255       .  A
C1706      C2464   1.446       .  S
O1707     Cr1714   1.965   1_455  S
O1708     Cr1714   1.994       .  S
O1708      C1709   1.260   1_655  A
C1709      O1710   1.270       .  A
O1710     Cr1715   2.014   1_455  S
O1711     Cr1715   2.072   1_455  S
O1711      C1712   1.287       .  A
C1712      C2450   1.507       .  S
Cr1713     O1716   1.795       .  S
Cr1714     O1716   1.768       .  S
Cr1715     O1716   1.767       .  S
O1717     Cr1735   1.963       .  S
O1717      C1725   1.261       .  A
O1718     Cr1735   1.993       .  S
O1718      C1719   1.264       .  A
C1719      O1720   1.250       .  A
C1719      C2607   1.455       .  S
O1720     Cr1736   1.952       .  S
O1721     Cr1736   1.983       .  S
O1721      C1722   1.257       .  A
C1722      O1723   1.270       .  A
C1722      C2422   1.516       .  S
O1723     Cr1737   2.040       .  S
O1724     Cr1737   2.078       .  S
O1724      C1725   1.287       .  A
C1725      C3125   1.518       .  S
O1726     Cr1735   1.998       .  S
O1726      C1734   1.261       .  A
O1727     Cr1735   1.946       .  S
O1727      C1728   1.255       .  A
C1728      O1729   1.263       .  A
C1728      C2523   1.452       .  S
O1729     Cr1736   1.995       .  S
O1730     Cr1736   1.933       .  S
O1730      C1731   1.251       .  A
C1731      O1732   1.291       .  A
C1731      C2436   1.508       .  S
O1732     Cr1737   2.093       .  S
O1733     Cr1737   2.036       .  S
O1733      C1734   1.272       .  A
C1734      C2758   1.513       .  S
Cr1735     O1738   1.767       .  S
Cr1736     O1738   1.785       .  S
Cr1737     O1738   1.756       .  S
O1739     Cr1757   1.992       .  S
O1739      C1747   1.253       .  A
O1740     Cr1757   1.949       .  S
O1740      C1741   1.258       .  A
C1741      O1742   1.264       .  A
C1741      C2548   1.455       .  S
O1742     Cr1758   1.992       .  S
O1743     Cr1758   1.925       .  S
O1743      C1744   1.248       .  A
C1744      O1745   1.287       .  A
C1744      C2408   1.516       .  S
O1745     Cr1759   2.085       .  S
O1746     Cr1759   2.034       .  S
O1746      C1747   1.269       .  A
C1747      C4018   1.510       .  S
O1748     Cr1757   1.960       .  S
O1748      C1756   1.265       .  A
O1749     Cr1757   1.991       .  S
O1749      C1750   1.258       .  A
C1750      O1751   1.250       .  A
C1750      C2495   1.457       .  S
O1751     Cr1758   1.943       .  S
O1752     Cr1758   1.992       .  S
O1752      C1753   1.260       .  A
C1753      O1754   1.270       .  A
C1753      C2397   1.516       .  S
O1754     Cr1759   2.019       .  S
O1755     Cr1759   2.089       .  S
O1755      C1756   1.291       .  A
C1756      C3069   1.522       .  S
Cr1757     O1760   1.776       .  S
Cr1758     O1760   1.786       .  S
Cr1759     O1760   1.758       .  S
O1761     Cr1779   2.083       .  S
O1761      C1769   1.290       .  A
O1762     Cr1779   2.033       .  S
O1762      C1763   1.270       .  A
C1763      O1764   1.258       .  A
C1763      C2380   1.510       .  S
O1764     Cr1780   1.989       .  S
O1765     Cr1780   1.948       .  S
O1765      C1766   1.252       .  A
C1766      O1767   1.266       .  A
C1766      C2467   1.463       .  S
O1767     Cr1781   2.004       .  S
O1768     Cr1781   1.958       .  S
O1768      C1769   1.258       .  A
C1769      C3965   1.521       .  S
O1770     Cr1779   2.026       .  S
O1770      C1778   1.269       .  A
O1771     Cr1779   2.095       .  S
O1771      C1772   1.288       .  A
C1772      O1773   1.248       .  A
C1772      C2366   1.514       .  S
O1773     Cr1780   1.923       .  S
O1774     Cr1780   1.989       .  S
O1774      C1775   1.261       .  A
C1775      O1776   1.254       .  A
C1775      C2579   1.459       .  S
O1776     Cr1781   1.949       .  S
O1777     Cr1781   2.008       .  S
O1777      C1778   1.262       .  A
C1778      C2817   1.523       .  S
Cr1779     O1782   1.758       .  S
Cr1780     O1782   1.780       .  S
Cr1781     O1782   1.777       .  S
O1783     Cr1801   2.075       .  S
O1783      C1791   1.286       .  A
O1784     Cr1801   2.038       .  S
O1784      C1785   1.270       .  A
C1785      O1786   1.257       .  A
C1785      C2383   1.507       .  S
O1786     Cr1802   1.984       .  S
O1787     Cr1802   1.952       .  S
O1787      C1788   1.250       .  A
C1788      O1789   1.262       .  A
C1788      C4007   1.450       .  S
O1789     Cr1803   2.001       .  S
O1790     Cr1803   1.959       .  S
O1790      C1791   1.262       .  A
C1791      C2453   1.515       .  S
O1792     Cr1801   2.041       .  S
O1792      C1800   1.272       .  A
O1793     Cr1801   2.087       .  S
O1793      C1794   1.289       .  A
C1794      O1795   1.251       .  A
C1794      C2411   1.512       .  S
O1795     Cr1802   1.930       .  S
O1796     Cr1802   1.998       .  S
O1796      C1797   1.263       .  A
C1797      O1798   1.255       .  A
C1797      C4060   1.455       .  S
O1798     Cr1803   1.943       .  S
O1799     Cr1803   2.000       .  S
O1799      C1800   1.261       .  A
C1800      C2537   1.514       .  S
Cr1801     O1804   1.760       .  S
Cr1802     O1804   1.783       .  S
Cr1803     O1804   1.770       .  S
O1805     Cr1823   2.039       .  S
O1805      C1813   1.270       .  A
O1806     Cr1823   2.100       .  S
O1806      C1807   1.292       .  A
C1807      O1808   1.252       .  A
C1807      C2439   1.519       .  S
O1808     Cr1824   1.934       .  S
O1809     Cr1824   1.982       .  S
O1809      C1810   1.257       .  A
C1810      O1811   1.255       .  A
C1810      C2800   1.453       .  S
O1811     Cr1825   1.958       .  S
O1812     Cr1825   1.995       .  S
O1812      C1813   1.259       .  A
C1813      C2509   1.513       .  S
O1814     Cr1823   2.105       .  S
O1814      C1822   1.293       .  A
O1815     Cr1823   2.025       .  S
O1815      C1816   1.271       .  A
C1816      O1817   1.255       .  A
C1816      C2369   1.506       .  S
O1817     Cr1824   1.984       .  S
O1818     Cr1824   1.937       .  S
O1818      C1819   1.250       .  A
C1819      O1820   1.265       .  A
C1819      C2859   1.452       .  S
O1820     Cr1825   2.004       .  S
O1821     Cr1825   1.957       .  S
O1821      C1822   1.261       .  A
C1822      C2565   1.530       .  S
Cr1823     O1826   1.758       .  S
Cr1824     O1826   1.786       .  S
Cr1825     O1826   1.778       .  S
O1827     Cr1845   1.968       .  S
O1827      C1835   1.264       .  A
O1828     Cr1845   2.000       .  S
O1828      C1829   1.263       .  A
C1829      O1830   1.252       .  A
C1829      C3167   1.455       .  S
O1830     Cr1846   1.942       .  S
O1831     Cr1846   1.986       .  S
O1831      C1832   1.258       .  A
C1832      O1833   1.270       .  A
C1832      C2425   1.505       .  S
O1833     Cr1847   2.037       .  S
O1834     Cr1847   2.077       .  S
O1834      C1835   1.287       .  A
C1835      C2593   1.522       .  S
O1836     Cr1845   2.002       .  S
O1836      C1844   1.261       .  A
O1837     Cr1845   1.950       .  S
O1837      C1838   1.255       .  A
C1838      O1839   1.260       .  A
C1838      C3111   1.460       .  S
O1839     Cr1846   1.988       .  S
O1840     Cr1846   1.932       .  S
O1840      C1841   1.252       .  A
C1841      O1842   1.287       .  A
C1841      C2394   1.518       .  S
O1842     Cr1847   2.088       .  S
O1843     Cr1847   2.029       .  S
O1843      C1844   1.270       .  A
C1844      C2478   1.515       .  S
Cr1845     O1848   1.782       .  S
Cr1846     O1848   1.784       .  S
Cr1847     O1848   1.761       .  S
O1849     Cr1867   1.988       .  S
O1849      C1857   1.259       .  A
O1850     Cr1867   1.960       .  S
O1850      C1851   1.252       .  A
C1851      O1852   1.263       .  A
C1851      C2352   1.442       .  S
O1852     Cr1868   1.986       .  S
O1853     Cr1868   1.954       .  S
O1853      C1854   1.256       .  A
C1854      O1855   1.275       .  A
O1855     Cr1869   2.037       .  S
O1856     Cr1869   2.040       .  S
O1856      C1857   1.268       .  A
C1857      C2338   1.522       .  S
O1858     Cr1867   1.952       .  S
O1858      C1866   1.255       .  A
O1859     Cr1867   1.984       .  S
O1859      C1860   1.258       .  A
C1860      O1861   1.255       .  A
C1860      C3321   1.439       .  S
O1861     Cr1868   1.953       .  S
O1862     Cr1868   1.994       .  S
O1862      C1863   1.258       .  A
C1863      O1864   1.269       .  A
O1864     Cr1869   2.013       .  S
O1865     Cr1869   2.076       .  S
O1865      C1866   1.285       .  A
C1866      C3265   1.520       .  S
Cr1867     O1870   1.788       .  S
Cr1868     O1870   1.769       .  S
Cr1869     O1870   1.762       .  S
O1871     Cr1889   1.939       .  S
O1871      C1879   1.252       .  A
O1872     Cr1889   1.979       .  S
O1872      C1873   1.259       .  A
C1873      O1874   1.259       .  A
C1873      C2324   1.436       .  S
O1874     Cr1890   1.961       .  S
O1875     Cr1890   2.009       .  S
O1875      C1876   1.260       .  A
C1876      O1877   1.269       .  A
O1877     Cr1891   2.010       .  S
O1878     Cr1891   2.076       .  S
O1878      C1879   1.286       .  A
C1879      C2310   1.512       .  S
O1880     Cr1889   1.982       .  S
O1880      C1888   1.256       .  A
O1881     Cr1889   1.957       .  S
O1881      C1882   1.251       .  A
C1882      O1883   1.266       .  A
C1882      C3671   1.440       .  S
O1883     Cr1890   1.988       .  S
O1884     Cr1890   1.954       .  S
O1884      C1885   1.254       .  A
C1885      O1886   1.276       .  A
O1886     Cr1891   2.042       .  S
O1887     Cr1891   2.023       .  S
O1887      C1888   1.265       .  A
C1888      C3559   1.514       .  S
Cr1889     O1892   1.785       .  S
Cr1890     O1892   1.760       .  S
Cr1891     O1892   1.759       .  S
O1893     Cr1911   1.981       .  S
O1893      C1901   1.256       .  A
O1894     Cr1911   1.950       .  S
O1894      C1895   1.250       .  A
C1895      O1896   1.270       .  A
C1895      C3307   1.444       .  S
O1896     Cr1912   2.001       .  S
O1897     Cr1912   1.974       .  S
O1897      C1898   1.260       .  A
C1898      O1899   1.274       .  A
O1899     Cr1913   2.029       .  S
O1900     Cr1913   2.030       .  S
O1900      C1901   1.260       .  A
C1901      C3374   1.522       .  S
O1902     Cr1911   1.960       .  S
O1902      C1910   1.258       .  A
O1903     Cr1911   1.980       .  S
O1903      C1904   1.254       .  A
C1904      O1905   1.259       .  A
C1904      C2296   1.451       .  S
O1905     Cr1912   1.975       .  S
O1906     Cr1912   2.003       .  S
O1906      C1907   1.261       .  A
C1907      O1908   1.268       .  A
O1908     Cr1913   2.000       .  S
O1909     Cr1913   2.077       .  S
O1909      C1910   1.288       .  A
C1910      C2282   1.517       .  S
Cr1911     O1914   1.797       .  S
Cr1912     O1914   1.770       .  S
Cr1913     O1914   1.767       .  S
O1915     Cr1933   1.947       .  S
O1915      C1923   1.251       .  A
O1916     Cr1933   1.984       .  S
O1916      C1917   1.260       .  A
C1917      O1918   1.263       .  A
C1917      C4245   1.455       .  S
O1918     Cr1934   1.972       .  S
O1919     Cr1934   2.004       .  S
O1919      C1920   1.259       .  A
C1920      O1921   1.267       .  A
O1921     Cr1935   2.001       .  S
O1922     Cr1935   2.073       .  S
O1922      C1923   1.285       .  A
C1923      C4301   1.514       .  S
O1924     Cr1933   1.984       .  S
O1924      C1932   1.256       .  A
O1925     Cr1933   1.956       .  S
O1925      C1926   1.250       .  A
C1926      O1927   1.263       .  A
C1926      C2268   1.438       .  S
O1927     Cr1934   1.982       .  S
O1928     Cr1934   1.982       .  S
O1928      C1929   1.263       .  A
C1929      O1930   1.276       .  A
O1930     Cr1935   2.045       .  S
O1931     Cr1935   2.021       .  S
O1931      C1932   1.265       .  A
C1932      C2254   1.513       .  S
Cr1933     O1936   1.791       .  S
Cr1934     O1936   1.764       .  S
Cr1935     O1936   1.759       .  S
O1937     Cr1955   1.953       .  S
O1937      C1945   1.254       .  A
O1938     Cr1955   1.983       .  S
O1938      C1939   1.258       .  A
C1939      O1940   1.258       .  A
C1939      C3657   1.434       .  S
O1940     Cr1956   1.956       .  S
O1941     Cr1956   2.034       .  S
O1941      C1942   1.269       .  A
C1942      O1943   1.269       .  A
O1943     Cr1957   2.003       .  S
O1944     Cr1957   2.069       .  S
O1944      C1945   1.283       .  A
C1945      C3615   1.512       .  S
O1946     Cr1955   1.988       .  S
O1946      C1954   1.260       .  A
O1947     Cr1955   1.953       .  S
O1947      C1948   1.249       .  A
C1948      O1949   1.269       .  A
C1948      C2240   1.445       .  S
O1949     Cr1956   2.003       .  S
O1950     Cr1956   1.961       .  S
O1950      C1951   1.254       .  A
C1951      O1952   1.273       .  A
O1952     Cr1957   2.039       .  S
O1953     Cr1957   2.027       .  S
O1953      C1954   1.267       .  A
C1954      C2226   1.522       .  S
Cr1955     O1958   1.790       .  S
Cr1956     O1958   1.763       .  S
Cr1957     O1958   1.763       .  S
O1959     Cr1977   1.957       .  S
O1959      C1967   1.256       .  A
O1960     Cr1977   1.981       .  S
O1960      C1961   1.259       .  A
C1961      O1962   1.260       .  A
C1961      C2212   1.453       .  S
O1962     Cr1978   1.962       .  S
O1963     Cr1978   1.983       .  S
O1963      C1964   1.254       .  A
C1964      O1965   1.269       .  A
O1965     Cr1979   2.015       .  S
O1966     Cr1979   2.061       .  S
O1966      C1967   1.281       .  A
C1967      C2198   1.517       .  S
O1968     Cr1977   1.984       .  S
O1968      C1976   1.256       .  A
O1969     Cr1977   1.971       .  S
O1969      C1970   1.255       .  A
C1970      O1971   1.263       .  A
C1970      C4231   1.451       .  S
O1971     Cr1978   1.988       .  S
O1972     Cr1978   1.985       .  S
O1972      C1973   1.266       .  A
C1973      O1974   1.274       .  A
O1974     Cr1979   2.019       .  S
O1975     Cr1979   2.027       .  S
O1975      C1976   1.264       .  A
C1976      C4189   1.522       .  S
Cr1977     O1980   1.795       .  S
Cr1978     O1980   1.771       .  S
Cr1979     O1980   1.762       .  S
O1981     Cr1999   2.013       .  S
O1981      C1989   1.271       .  A
O1982     Cr1999   2.091       .  S
O1982      C1983   1.287       .  A
C1983      O1984   1.250       .  A
C1983      C2184   1.505       .  S
O1984     Cr2000   1.927       .  S
O1985     Cr2000   2.004       .  S
O1985      C1986   1.261       .  A
C1986      O1987   1.253       .  A
C1986      C2299   1.448       .  S
O1987     Cr2001   1.943       .  S
O1988     Cr2001   2.013       .  S
O1988      C1989   1.267       .  A
C1989      C4816   1.508       .  S
O1990     Cr1999   2.072       .  S
O1990      C1998   1.283       .  A
O1991     Cr1999   2.011       .  S
O1991      C1992   1.265       .  A
C1992      O1993   1.260       .  A
C1992      C2170   1.511       .  S
O1993     Cr2000   1.997       .  S
O1994     Cr2000   1.931       .  S
O1994      C1995   1.247       .  A
C1995      O1996   1.268       .  A
C1995      C2355   1.448       .  S
O1996     Cr2001   2.011       .  S
O1997     Cr2001   1.974       .  S
O1997      C1998   1.261       .  A
C1998      C4539   1.524       .  S
Cr1999     O2002   1.762       .  S
Cr2000     O2002   1.786       .  S
Cr2001     O2002   1.766       .  S
O2003     Cr2021   1.961       .  S
O2003      C2011   1.262       .  A
O2004     Cr2021   1.997       .  S
O2004      C2005   1.261       .  A
C2005      O2006   1.250       .  A
C2005      C2327   1.447       .  S
O2006     Cr2022   1.934       .  S
O2007     Cr2022   1.993       .  S
O2007      C2008   1.259       .  A
C2008      O2009   1.270       .  A
C2008      C2142   1.519       .  S
O2009     Cr2023   2.030       .  S
O2010     Cr2023   2.083       .  S
O2010      C2011   1.288       .  A
C2011      C4651   1.522       .  S
O2012     Cr2021   2.002       .  S
O2012      C2020   1.260       .  A
O2013     Cr2021   1.945       .  S
O2013      C2014   1.254       .  A
C2014      O2015   1.261       .  A
C2014      C2243   1.454       .  S
O2015     Cr2022   1.996       .  S
O2016     Cr2022   1.908       .  S
O2016      C2017   1.241       .  A
C2017      O2018   1.288       .  A
C2017      C2156   1.511       .  S
O2018     Cr2023   2.095       .  S
O2019     Cr2023   2.046       .  S
O2019      C2020   1.273       .  A
C2020      C5099   1.522       .  S
Cr2021     O2024   1.770       .  S
Cr2022     O2024   1.781       .  S
Cr2023     O2024   1.760       .  S
O2025     Cr2043   2.089       .  S
O2025      C2033   1.287       .  A
O2026     Cr2043   2.043       .  S
O2026      C2027   1.271       .  A
C2027      O2028   1.251       .  A
C2027      C2114   1.508       .  S
O2028     Cr2044   1.981       .  S
O2029     Cr2044   1.926       .  S
O2029      C2030   1.246       .  A
C2030      O2031   1.269       .  A
C2030      C2271   1.441       .  S
O2031     Cr2045   2.013       .  S
O2032     Cr2045   1.943       .  S
O2032      C2033   1.256       .  A
C2033      C4931   1.519       .  S
O2034     Cr2043   2.024       .  S
O2034      C2042   1.272       .  A
O2035     Cr2043   2.105       .  S
O2035      C2036   1.295       .  A
C2036      O2037   1.248       .  A
C2036      C2128   1.509       .  S
O2037     Cr2044   1.922       .  S
O2038     Cr2044   1.981       .  S
O2038      C2039   1.252       .  A
C2039      O2040   1.253       .  A
C2039      C2215   1.439       .  S
O2040     Cr2045   1.946       .  S
O2041     Cr2045   2.007       .  S
O2041      C2042   1.265       .  A
C2042      C4707   1.512       .  S
Cr2043     O2046   1.758       .  S
Cr2044     O2046   1.774       .  S
Cr2045     O2046   1.765       .  S
O2047     Cr2065   2.010       .  S
O2047      C2055   1.264       .  A
O2048     Cr2065   1.950       .  S
O2048      C2049   1.253       .  A
C2049      O2050   1.254       .  A
C2049      C4721   1.440       .  S
O2050     Cr2066   1.985       .  S
O2051     Cr2066   1.921       .  S
O2051      C2052   1.248       .  A
C2052      O2053   1.293       .  A
C2052      C2131   1.510       .  S
O2053     Cr2067   2.099       .  S
O2054     Cr2067   2.018       .  S
O2054      C2055   1.269       .  A
C2055      C2201   1.514       .  S
O2056     Cr2065   1.953       .  S
O2056      C2064   1.258       .  A
O2057     Cr2065   2.008       .  S
O2057      C2058   1.270       .  A
C2058      O2059   1.248       .  A
C2058      C5113   1.440       .  S
O2059     Cr2066   1.923       .  S
O2060     Cr2066   1.982       .  S
O2060      C2061   1.253       .  A
C2061      O2062   1.265       .  A
C2061      C2159   1.494       .  S
O2062     Cr2067   2.012       .  S
O2063     Cr2067   2.096       .  S
O2063      C2064   1.289       .  A
C2064      C2229   1.526       .  S
Cr2065     O2068   1.769       .  S
Cr2066     O2068   1.786       .  S
Cr2067     O2068   1.757       .  S
O2069     Cr2087   2.098       .  S
O2069      C2077   1.288       .  A
O2070     Cr2087   2.041       .  S
O2070      C2071   1.273       .  A
C2071      O2072   1.256       .  A
C2071      C2117   1.511       .  S
O2072     Cr2088   1.988       .  S
O2073     Cr2088   1.932       .  S
O2073      C2074   1.244       .  A
C2074      O2075   1.266       .  A
C2074      C4945   1.449       .  S
O2075     Cr2089   2.011       .  S
O2076     Cr2089   1.939       .  S
O2076      C2077   1.253       .  A
C2077      C2257   1.519       .  S
O2078     Cr2087   2.033       .  S
O2078      C2086   1.272       .  A
O2079     Cr2087   2.096       .  S
O2079      C2080   1.289       .  A
C2080      O2081   1.253       .  A
C2080      C2173   1.505       .  S
O2081     Cr2088   1.929       .  S
O2082     Cr2088   1.993       .  S
O2082      C2083   1.259       .  A
C2083      O2084   1.251       .  A
C2083      C4553   1.453       .  S
O2084     Cr2089   1.929       .  S
O2085     Cr2089   2.012       .  S
O2085      C2086   1.267       .  A
C2086      C2341   1.523       .  S
Cr2087     O2090   1.759       .  S
Cr2088     O2090   1.773       .  S
Cr2089     O2090   1.770       .  S
O2091     Cr2109   2.087       .  S
O2091      C2099   1.292       .  A
O2092     Cr2109   2.026       .  S
O2092      C2093   1.271       .  A
C2093      O2094   1.258       .  A
C2093      C2187   1.501       .  S
O2094     Cr2110   1.983       .  S
O2095     Cr2110   1.951       .  S
O2095      C2096   1.253       .  A
C2096      O2097   1.257       .  A
C2096      C4833   1.455       .  S
O2097     Cr2111   1.988       .  S
O2098     Cr2111   1.970       .  S
O2098      C2099   1.266       .  A
C2099      C2285   1.526       .  S
O2100     Cr2109   2.031       .  S
O2100      C2108   1.267       .  A
O2101     Cr2109   2.083       .  S
O2101      C2102   1.286       .  A
C2102      O2103   1.254       .  A
C2102      C2145   1.519       .  S
O2103     Cr2110   1.943       .  S
O2104     Cr2110   1.982       .  S
O2104      C2105   1.260       .  A
C2105      O2106   1.259       .  A
C2105      C4665   1.453       .  S
O2106     Cr2111   1.960       .  S
O2107     Cr2111   1.989       .  S
O2107      C2108   1.253       .  A
C2108      C2313   1.508       .  S
Cr2109     O2112   1.759       .  S
Cr2110     O2112   1.785       .  S
Cr2111     O2112   1.781       .  S
C2113      C2114   1.398       .  A
C2113      C2118   1.407       .  A
C2113      H2120   1.084       .  S
C2114      C2115   1.431       .  A
C2115      C2116   1.409       .  A
C2115      N2122   1.432       .  S
C2116      C2117   1.400       .  A
C2116      H2121   1.084       .  S
C2117      C2118   1.432       .  A
C2118      N2119   1.430       .  S
N2119      H2123   1.045       .  S
N2119      H2124   1.036       .  S
N2122      H2125   1.045       .  S
N2122      H2126   1.037       .  S
C2127      C2128   1.396       .  A
C2127      C2132   1.408       .  A
C2127      H2134   1.084       .  S
C2128      C2129   1.437       .  A
C2129      C2130   1.405       .  A
C2129      N2136   1.434       .  S
C2130      C2131   1.395       .  A
C2130      H2135   1.084       .  S
C2131      C2132   1.439       .  A
C2132      N2133   1.433       .  S
N2133      H2137   1.044       .  S
N2133      H2138   1.045       .  S
N2136      H2139   1.044       .  S
N2136      H2140   1.046       .  S
C2141      C2142   1.421       .  A
C2141      C2146   1.418       .  A
C2141      H2148   1.083       .  S
C2142      C2143   1.417       .  A
C2143      C2144   1.405       .  A
C2143      N2150   1.433       .  S
C2144      C2145   1.417       .  A
C2144      H2149   1.083       .  S
C2145      C2146   1.414       .  A
C2146      N2147   1.431       .  S
N2147      H2151   1.045       .  S
N2147      H2152   1.045       .  S
N2150      H2153   1.045       .  S
N2150      H2154   1.045       .  S
C2155      C2156   1.405       .  A
C2155      C2160   1.419       .  A
C2155      H2162   1.083       .  S
C2156      C2157   1.440       .  A
C2157      C2158   1.393       .  A
C2157      N2164   1.434       .  S
C2158      C2159   1.389       .  A
C2158      H2163   1.085       .  S
C2159      C2160   1.421       .  A
C2160      N2161   1.432       .  S
N2161      H2165   1.045       .  S
N2161      H2166   1.045       .  S
N2164      H2167   1.045       .  S
N2164      H2168   1.043       .  S
C2169      C2170   1.418       .  A
C2169      C2174   1.418       .  A
C2169      H2176   1.083       .  S
C2170      C2171   1.419       .  A
C2171      C2172   1.399       .  A
C2171      N2178   1.433       .  S
C2172      C2173   1.410       .  A
C2172      H2177   1.083       .  S
C2173      C2174   1.414       .  A
C2174      N2175   1.431       .  S
N2175      H2179   1.046       .  S
N2175      H2180   1.045       .  S
N2178      H2181   1.045       .  S
N2178      H2182   1.045       .  S
C2183      C2184   1.401       .  A
C2183      C2188   1.417       .  A
C2183      H2190   1.083       .  S
C2184      C2185   1.425       .  A
C2185      C2186   1.408       .  A
C2185      N2192   1.433       .  S
C2186      C2187   1.397       .  A
C2186      H2191   1.084       .  S
C2187      C2188   1.422       .  A
C2188      N2189   1.430       .  S
N2189      H2193   1.045       .  S
N2189      H2194   1.045       .  S
N2192      H2195   1.046       .  S
N2192      H2196   1.046       .  S
C2197      C2198   1.416       .  A
C2197      C2202   1.413       .  A
C2197      H2204   1.083       .  S
C2198      C2199   1.413       .  A
C2199      C2200   1.420       .  A
C2199      N2206   1.431       .  S
C2200      C2201   1.415       .  A
C2200      H2205   1.083       .  S
C2201      C2202   1.411       .  A
C2202      N2203   1.432       .  S
N2203      H2207   1.046       .  S
N2203      H2208   1.046       .  S
N2206      H2209   1.045       .  S
N2206      H2210   1.046       .  S
C2211      C2212   1.403       .  A
C2211      C2216   1.391       .  A
C2211      H2218   1.081       .  S
C2212      C2213   1.403       .  A
C2213      C2214   1.386       .  A
C2213      N2220   1.434       .  S
C2214      C2215   1.399       .  A
C2214      H2219   1.085       .  S
C2215      C2216   1.404       .  A
C2216      N2217   1.433       .  S
N2217      H2221   1.046       .  S
N2217      H2222   1.045       .  S
N2220      H2223   1.046       .  S
N2220      H2224   1.046       .  S
C2225      C2226   1.404       .  A
C2225      C2230   1.410       .  A
C2225      H2232   1.084       .  S
C2226      C2227   1.423       .  A
C2227      C2228   1.429       .  A
C2227      N2234   1.431       .  S
C2228      C2229   1.411       .  A
C2228      H2233   1.083       .  S
C2229      C2230   1.425       .  A
C2230      N2231   1.433       .  S
N2231      H2235   1.046       .  S
N2231      H2236   1.046       .  S
N2234      H2237   1.045       .  S
N2234      H2238   1.046       .  S
C2239      C2240   1.390       .  A
C2239      C2244   1.389       .  A
C2239      H2246   1.085       .  S
C2240      C2241   1.411       .  A
C2241      C2242   1.401       .  A
C2241      N2248   1.437       .  S
C2242      C2243   1.395       .  A
C2242      H2247   1.084       .  S
C2243      C2244   1.411       .  A
C2244      N2245   1.432       .  S
N2245      H2249   1.045       .  S
N2245      H2250   1.045       .  S
N2248      H2251   1.045       .  S
N2248      H2252   1.046       .  S
C2253      C2254   1.402       .  A
C2253      C2258   1.406       .  A
C2253      H2260   1.084       .  S
C2254      C2255   1.420       .  A
C2255      C2256   1.426       .  A
C2255      N2262   1.431       .  S
C2256      C2257   1.410       .  A
C2256      H2261   1.083       .  S
C2257      C2258   1.426       .  A
C2258      N2259   1.434       .  S
N2259      H2263   1.045       .  S
N2259      H2264   1.046       .  S
N2262      H2265   1.045       .  S
N2262      H2266   1.046       .  S
C2267      C2268   1.399       .  A
C2267      C2272   1.385       .  A
C2267      H2274   1.081       .  S
C2268      C2269   1.401       .  A
C2269      C2270   1.390       .  A
C2269      N2276   1.431       .  S
C2270      C2271   1.405       .  A
C2270      H2275   1.085       .  S
C2271      C2272   1.398       .  A
C2272      N2273   1.434       .  S
N2273      H2277   1.046       .  S
N2273      H2278   1.045       .  S
N2276      H2279   1.045       .  S
N2276      H2280   1.045       .  S
C2281      C2282   1.416       .  A
C2281      C2286   1.415       .  A
C2281      H2288   1.084       .  S
C2282      C2283   1.410       .  A
C2283      C2284   1.418       .  A
C2283      N2290   1.432       .  S
C2284      C2285   1.420       .  A
C2284      H2289   1.082       .  S
C2285      C2286   1.420       .  A
C2286      N2287   1.431       .  S
N2287      H2291   1.045       .  S
N2287      H2292   1.045       .  S
N2290      H2293   1.046       .  S
N2290      H2294   1.045       .  S
C2295      C2296   1.395       .  A
C2295      C2300   1.387       .  A
C2295      H2302   1.085       .  S
C2296      C2297   1.407       .  A
C2297      C2298   1.398       .  A
C2297      N2304   1.433       .  S
C2298      C2299   1.398       .  A
C2298      H2303   1.084       .  S
C2299      C2300   1.413       .  A
C2300      N2301   1.432       .  S
N2301      H2305   1.045       .  S
N2301      H2306   1.044       .  S
N2304      H2307   1.045       .  S
N2304      H2308   1.046       .  S
C2309      C2310   1.403       .  A
C2309      C2314   1.416       .  A
C2309      H2316   1.083       .  S
C2310      C2311   1.430       .  A
C2311      C2312   1.414       .  A
C2311      N2318   1.439       .  S
C2312      C2313   1.399       .  A
C2312      H2317   1.083       .  S
C2313      C2314   1.422       .  A
C2314      N2315   1.432       .  S
N2315      H2319   1.046       .  S
N2315      H2320   1.046       .  S
N2318      H2321   1.046       .  S
N2318      H2322   1.046       .  S
C2323      C2324   1.398       .  A
C2323      C2328   1.385       .  A
C2323      H2330   1.085       .  S
C2324      C2325   1.408       .  A
C2325      C2326   1.388       .  A
C2325      N2332   1.440       .  S
C2326      C2327   1.404       .  A
C2326      H2331   1.085       .  S
C2327      C2328   1.409       .  A
C2328      N2329   1.434       .  S
N2329      H2333   1.044       .  S
N2329      H2334   1.045       .  S
N2332      H2335   1.044       .  S
N2332      H2336   1.046       .  S
C2337      C2338   1.416       .  A
C2337      C2342   1.423       .  A
C2337      H2344   1.083       .  S
C2338      C2339   1.412       .  A
C2339      C2340   1.418       .  A
C2339      N2346   1.431       .  S
C2340      C2341   1.415       .  A
C2340      H2345   1.083       .  S
C2341      C2342   1.417       .  A
C2342      N2343   1.437       .  S
N2343      H2347   1.045       .  S
N2343      H2348   1.046       .  S
N2346      H2349   1.045       .  S
N2346      H2350   1.046       .  S
C2351      C2352   1.402       .  A
C2351      C2356   1.389       .  A
C2351      H2358   1.084       .  S
C2352      C2353   1.398       .  A
C2353      C2354   1.397       .  A
C2353      N2360   1.435       .  S
C2354      C2355   1.405       .  A
C2354      H2359   1.082       .  S
C2355      C2356   1.398       .  A
C2356      N2357   1.433       .  S
N2357      H2361   1.046       .  S
N2357      H2362   1.046       .  S
N2360      H2363   1.045       .  S
N2360      H2364   1.045       .  S
C2365      C2366   1.404       .  A
C2365      C2370   1.416       .  A
C2365      H2372   1.083       .  S
C2366      C2367   1.430       .  A
C2367      C2368   1.403       .  A
C2367      N2374   1.434       .  S
C2368      C2369   1.395       .  A
C2368      H2373   1.084       .  S
C2369      C2370   1.431       .  A
C2370      N2371   1.432       .  S
N2371      H2375   1.043       .  S
N2371      H2376   1.045       .  S
N2374      H2377   1.046       .  S
N2374      H2378   1.046       .  S
C2379      C2380   1.416       .  A
C2379      C2384   1.411       .  A
C2379      H2386   1.083       .  S
C2380      C2381   1.409       .  A
C2381      C2382   1.414       .  A
C2381      N2388   1.431       .  S
C2382      C2383   1.414       .  A
C2382      H2387   1.083       .  S
C2383      C2384   1.413       .  A
C2384      N2385   1.431       .  S
N2385      H2389   1.045       .  S
N2385      H2390   1.045       .  S
N2388      H2391   1.046       .  S
N2388      H2392   1.046       .  S
C2393      C2394   1.418       .  A
C2393      C2398   1.401       .  A
C2393      H2400   1.083       .  S
C2394      C2395   1.415       .  A
C2395      C2396   1.418       .  A
C2395      N2402   1.431       .  S
C2396      C2397   1.421       .  A
C2396      H2401   1.083       .  S
C2397      C2398   1.416       .  A
C2398      N2399   1.433       .  S
N2399      H2403   1.045       .  S
N2399      H2404   1.045       .  S
N2402      H2405   1.045       .  S
N2402      H2406   1.045       .  S
C2407      C2408   1.425       .  A
C2407      C2412   1.408       .  A
C2407      H2414   1.083       .  S
C2408      C2409   1.410       .  A
C2409      C2410   1.410       .  A
C2409      N2416   1.431       .  S
C2410      C2411   1.422       .  A
C2410      H2415   1.083       .  S
C2411      C2412   1.408       .  A
C2412      N2413   1.432       .  S
N2413      H2417   1.045       .  S
N2413      H2418   1.045       .  S
N2416      H2419   1.045       .  S
N2416      H2420   1.045       .  S
C2421      C2422   1.419       .  A
C2421      C2426   1.412       .  A
C2421      H2428   1.083       .  S
C2422      C2423   1.418       .  A
C2423      C2424   1.411       .  A
C2423      N2430   1.431       .  S
C2424      C2425   1.412       .  A
C2424      H2429   1.083       .  S
C2425      C2426   1.411       .  A
C2426      N2427   1.432       .  S
N2427      H2431   1.045       .  S
N2427      H2432   1.045       .  S
N2430      H2433   1.045       .  S
N2430      H2434   1.045       .  S
C2435      C2436   1.419       .  A
C2435      C2440   1.420       .  A
C2435      H2442   1.083       .  S
C2436      C2437   1.403       .  A
C2437      C2438   1.413       .  A
C2437      N2444   1.432       .  S
C2438      C2439   1.424       .  A
C2438      H2443   1.083       .  S
C2439      C2440   1.410       .  A
C2440      N2441   1.436       .  S
N2441      H2445   1.046       .  S
N2441      H2446   1.046       .  S
N2444      H2447   1.045       .  S
N2444      H2448   1.046       .  S
C2449      C2450   1.415       .  A
C2449      C2454   1.411       .  A
C2449      H2456   1.084       .  S
C2450      C2451   1.414       .  A
C2451      C2452   1.408       .  A
C2451      N2458   1.430       .  S
C2452      C2453   1.417       .  A
C2452      H2457   1.083       .  S
C2453      C2454   1.417       .  A
C2454      N2455   1.431       .  S
N2455      H2459   1.045       .  S
N2455      H2460   1.045       .  S
N2458      H2461   1.045       .  S
N2458      H2462   1.043       .  S
C2463      C2464   1.393       .  A
C2463      C2468   1.389       .  A
C2463      H2470   1.085       .  S
C2464      C2465   1.406       .  A
C2465      C2466   1.397       .  A
C2465      N2472   1.438   1_455  S
C2466      C2467   1.402       .  A
C2466      H2471   1.084       .  S
C2467      C2468   1.419       .  A
C2468      N2469   1.431       .  S
N2469      H2473   1.045       .  S
N2469      H2474   1.044       .  S
N2472      H2475   1.045       .  S
N2472      H2476   1.046       .  S
C2477      C2478   1.418       .  A
C2477      C2482   1.421       .  A
C2477      H2484   1.083       .  S
C2478      C2479   1.409       .  A
C2479      C2480   1.412       .  A
C2479      N2486   1.432       .  S
C2480      C2481   1.416       .  A
C2480      H2485   1.083       .  S
C2481      C2482   1.412       .  A
C2482      N2483   1.431       .  S
N2483      H2487   1.046       .  S
N2483      H2488   1.045       .  S
N2486      H2489   1.046       .  S
N2486      H2490   1.046       .  S
C2491      C2492   1.395       .  A
C2491      C2496   1.393       .  A
C2491      H2498   1.085       .  S
C2492      C2493   1.394       .  A
C2493      C2494   1.390       .  A
C2493      N2500   1.433       .  S
C2494      C2495   1.406       .  A
C2494      H2499   1.084       .  S
C2495      C2496   1.412       .  A
C2496      N2497   1.438       .  S
N2497      H2501   1.046       .  S
N2497      H2502   1.046       .  S
N2500      H2503   1.044       .  S
N2500      H2504   1.045       .  S
C2505      C2506   1.405       .  A
C2505      C2510   1.411       .  A
C2505      H2512   1.084       .  S
C2506      C2507   1.425       .  A
C2507      C2508   1.422       .  A
C2507      N2514   1.432       .  S
C2508      C2509   1.406       .  A
C2508      H2513   1.083       .  S
C2509      C2510   1.418       .  A
C2510      N2511   1.432       .  S
N2511      H2515   1.045       .  S
N2511      H2516   1.046       .  S
N2514      H2517   1.045       .  S
N2514      H2518   1.046       .  S
C2519      C2520   1.392       .  A
C2519      C2524   1.385       .  A
C2519      H2526   1.085       .  S
C2520      C2521   1.405       .  A
C2521      C2522   1.398       .  A
C2521      N2528   1.437       .  S
C2522      C2523   1.398       .  A
C2522      H2527   1.084       .  S
C2523      C2524   1.417       .  A
C2524      N2525   1.433       .  S
N2525      H2529   1.042       .  S
N2525      H2530   1.043       .  S
N2528      H2531   1.045       .  S
N2528      H2532   1.046       .  S
C2533      C2534   1.406       .  A
C2533      C2538   1.414       .  A
C2533      H2540   1.083       .  S
C2534      C2535   1.424       .  A
C2535      C2536   1.422       .  A
C2535      N2542   1.432       .  S
C2536      C2537   1.406       .  A
C2536      H2541   1.083       .  S
C2537      C2538   1.420       .  A
C2538      N2539   1.432       .  S
N2539      H2543   1.046       .  S
N2539      H2544   1.046       .  S
N2542      H2545   1.045       .  S
N2542      H2546   1.046       .  S
C2547      C2548   1.398       .  A
C2547      C2552   1.400       .  A
C2547      H2554   1.084       .  S
C2548      C2549   1.410       .  A
C2549      C2550   1.390       .  A
C2549      N2556   1.433       .  S
C2550      C2551   1.393       .  A
C2550      H2555   1.085       .  S
C2551      C2552   1.406       .  A
C2552      N2553   1.436       .  S
N2553      H2557   1.046       .  S
N2553      H2558   1.045       .  S
N2556      H2559   1.046       .  S
N2556      H2560   1.046       .  S
C2561      C2562   1.404       .  A
C2561      C2566   1.410       .  A
C2561      H2568   1.084       .  S
C2562      C2563   1.426       .  A
C2563      C2564   1.434       .  A
C2563      N2570   1.436       .  S
C2564      C2565   1.413       .  A
C2564      H2569   1.083       .  S
C2565      C2566   1.424       .  A
C2566      N2567   1.432       .  S
N2567      H2571   1.046       .  S
N2567      H2572   1.045       .  S
N2570      H2573   1.045       .  S
N2570      H2574   1.046       .  S
C2575      C2576   1.392       .  A
C2575      C2580   1.392       .  A
C2575      H2582   1.085       .  S
C2576      C2577   1.405       .  A
C2577      C2578   1.397       .  A
C2577      N2584   1.432       .  S
C2578      C2579   1.398       .  A
C2578      H2583   1.084       .  S
C2579      C2580   1.415       .  A
C2580      N2581   1.438       .  S
N2581      H2585   1.046       .  S
N2581      H2586   1.043       .  S
N2584      H2587   1.045       .  S
N2584      H2588   1.045       .  S
C2589      C2590   1.417       .  A
C2589      C2594   1.414       .  A
C2589      H2596   1.083       .  S
C2590      C2591   1.419       .  A
C2591      C2592   1.412       .  A
C2591      N2598   1.432       .  S
C2592      C2593   1.417       .  A
C2592      H2597   1.083       .  S
C2593      C2594   1.418       .  A
C2594      N2595   1.431       .  S
N2595      H2599   1.046       .  S
N2595      H2600   1.045       .  S
N2598      H2601   1.045       .  S
N2598      H2602   1.045       .  S
C2603      C2604   1.395       .  A
C2603      C2608   1.397       .  A
C2603      H2610   1.084       .  S
C2604      C2605   1.409       .  A
C2605      C2606   1.385       .  A
C2605      N2612   1.434   1_554  S
C2606      C2607   1.396       .  A
C2606      H2611   1.085       .  S
C2607      C2608   1.413       .  A
C2608      N2609   1.431       .  S
N2609      H2613   1.046       .  S
N2609      H2614   1.045       .  S
N2612      H2615   1.046       .  S
N2612      H2616   1.045       .  S
C2617      C2618   1.405       .  A
C2617      C2622   1.420       .  A
C2617      H2624   1.083       .  S
C2618      C2619   1.425       .  A
C2619      C2620   1.424       .  A
C2619      N2626   1.431       .  S
C2620      C2621   1.407       .  A
C2620      H2625   1.083       .  S
C2621      C2622   1.429       .  A
C2622      N2623   1.439       .  S
N2623      H2627   1.046       .  S
N2623      H2628   1.046       .  S
N2626      H2629   1.046       .  S
N2626      H2630   1.046       .  S
C2631      C2632   1.418       .  A
C2631      C2636   1.414       .  A
C2631      H2638   1.083       .  S
C2632      C2633   1.417       .  A
C2633      C2634   1.428       .  A
C2633      N2640   1.436       .  S
C2634      C2635   1.418       .  A
C2634      H2639   1.083       .  S
C2635      C2636   1.412       .  A
C2636      N2637   1.432       .  S
N2637      H2641   1.046       .  S
N2637      H2642   1.046       .  S
N2640      H2643   1.046       .  S
N2640      H2644   1.045       .  S
C2645      C2646   1.392       .  A
C2645      C2650   1.389       .  A
C2645      H2652   1.082       .  S
C2646      C2647   1.409       .  A
C2647      C2648   1.395       .  A
C2647      N2654   1.432       .  S
C2648      C2649   1.393       .  A
C2648      H2653   1.084       .  S
C2649      C2650   1.407       .  A
C2650      N2651   1.433       .  S
N2651      H2655   1.045       .  S
N2651      H2656   1.045       .  S
N2654      H2657   1.046   1_565  S
N2654      H2658   1.045       .  S
C2659      C2660   1.397       .  A
C2659      C2664   1.397       .  A
C2659      H2666   1.084       .  S
C2660      C2661   1.406       .  A
C2661      C2662   1.391       .  A
C2661      N2668   1.433       .  S
C2662      C2663   1.397       .  A
C2662      H2667   1.085       .  S
C2663      C2664   1.415       .  A
C2664      N2665   1.432   1_565  S
N2665      H2669   1.045       .  S
N2665      H2670   1.044       .  S
N2668      H2671   1.046       .  S
N2668      H2672   1.046       .  S
C2673      C2674   1.396       .  A
C2673      C2678   1.406       .  A
C2673      H2680   1.084       .  S
C2674      C2675   1.438       .  A
C2675      C2676   1.404       .  A
C2675      N2682   1.434       .  S
C2676      C2677   1.393       .  A
C2676      H2681   1.084       .  S
C2677      C2678   1.438       .  A
C2678      N2679   1.434       .  S
N2679      H2683   1.046       .  S
N2679      H2684   1.044       .  S
N2682      H2685   1.046       .  S
N2682      H2686   1.044       .  S
C2687      C2688   1.413       .  A
C2687      C2692   1.415       .  A
C2687      H2694   1.083       .  S
C2688      C2689   1.415       .  A
C2689      C2690   1.414       .  A
C2689      N2696   1.431       .  S
C2690      C2691   1.415       .  A
C2690      H2695   1.083       .  S
C2691      C2692   1.409       .  A
C2692      N2693   1.431       .  S
N2693      H2697   1.046       .  S
N2693      H2698   1.046       .  S
N2696      H2699   1.045       .  S
N2696      H2700   1.045       .  S
C2701      C2702   1.396       .  A
C2701      C2706   1.407       .  A
C2701      H2708   1.084       .  S
C2702      C2703   1.428       .  A
C2703      C2704   1.428       .  A
C2703      N2710   1.437       .  S
C2704      C2705   1.407       .  A
C2704      H2709   1.083       .  S
C2705      C2706   1.434       .  A
C2706      N2707   1.434       .  S
N2707      H2711   1.046       .  S
N2707      H2712   1.046       .  S
N2710      H2713   1.045       .  S
N2710      H2714   1.045       .  S
C2715      C2716   1.417       .  A
C2715      C2720   1.413       .  A
C2715      H2722   1.083       .  S
C2716      C2717   1.410       .  A
C2717      C2718   1.406       .  A
C2717      N2724   1.432       .  S
C2718      C2719   1.421       .  A
C2718      H2723   1.084       .  S
C2719      C2720   1.413       .  A
C2720      N2721   1.430       .  S
N2721      H2725   1.044       .  S
N2721      H2726   1.045       .  S
N2724      H2727   1.045       .  S
N2724      H2728   1.046       .  S
C2729      C2730   1.397       .  A
C2729      C2734   1.412       .  A
C2729      H2736   1.084       .  S
C2730      C2731   1.443       .  A
C2731      C2732   1.410       .  A
C2731      N2738   1.433       .  S
C2732      C2733   1.394       .  A
C2732      H2737   1.084       .  S
C2733      C2734   1.431       .  A
C2734      N2735   1.433       .  S
N2735      H2739   1.046       .  S
N2735      H2740   1.046       .  S
N2738      H2741   1.045       .  S
N2738      H2742   1.044       .  S
C2743      C2744   1.404       .  A
C2743      C2748   1.417       .  A
C2743      H2750   1.084       .  S
C2744      C2745   1.420       .  A
C2745      C2746   1.416       .  A
C2745      N2752   1.432       .  S
C2746      C2747   1.405       .  A
C2746      H2751   1.083       .  S
C2747      C2748   1.422       .  A
C2748      N2749   1.432       .  S
N2749      H2753   1.045       .  S
N2749      H2754   1.046       .  S
N2752      H2755   1.045       .  S
N2752      H2756   1.046       .  S
C2757      C2758   1.412       .  A
C2757      C2762   1.413       .  A
C2757      H2764   1.084       .  S
C2758      C2759   1.416       .  A
C2759      C2760   1.416       .  A
C2759      N2766   1.431       .  S
C2760      C2761   1.416       .  A
C2760      H2765   1.083       .  S
C2761      C2762   1.415       .  A
C2762      N2763   1.432       .  S
N2763      H2767   1.046       .  S
N2763      H2768   1.046       .  S
N2766      H2769   1.046       .  S
N2766      H2770   1.045       .  S
C2771      C2772   1.405       .  A
C2771      C2776   1.422       .  A
C2771      H2778   1.083       .  S
C2772      C2773   1.430       .  A
C2773      C2774   1.416       .  A
C2773      N2780   1.433       .  S
C2774      C2775   1.400       .  A
C2774      H2779   1.084       .  S
C2775      C2776   1.424       .  A
C2776      N2777   1.438       .  S
N2777      H2781   1.046       .  S
N2777      H2782   1.046       .  S
N2780      H2783   1.046       .  S
N2780      H2784   1.046       .  S
C2785      C2786   1.404       .  A
C2785      C2790   1.391       .  A
C2785      H2792   1.084       .  S
C2786      C2787   1.407       .  A
C2787      C2788   1.398       .  A
C2787      N2794   1.438       .  S
C2788      C2789   1.401       .  A
C2788      H2793   1.084       .  S
C2789      C2790   1.401       .  A
C2790      N2791   1.439       .  S
N2791      H2795   1.046       .  S
N2791      H2796   1.045       .  S
N2794      H2797   1.046       .  S
N2794      H2798   1.046       .  S
C2799      C2800   1.397       .  A
C2799      C2804   1.397       .  A
C2799      H2806   1.084       .  S
C2800      C2801   1.411       .  A
C2801      C2802   1.390       .  A
C2801      N2808   1.432       .  S
C2802      C2803   1.392       .  A
C2802      H2807   1.085       .  S
C2803      C2804   1.407       .  A
C2804      N2805   1.433       .  S
N2805      H2809   1.045       .  S
N2805      H2810   1.046       .  S
N2808      H2811   1.045       .  S
N2808      H2812   1.045       .  S
C2813      C2814   1.416       .  A
C2813      C2818   1.407       .  A
C2813      H2820   1.083       .  S
C2814      C2815   1.415       .  A
C2815      C2816   1.426       .  A
C2815      N2822   1.437       .  S
C2816      C2817   1.420       .  A
C2816      H2821   1.083       .  S
C2817      C2818   1.418       .  A
C2818      N2819   1.432       .  S
N2819      H2823   1.045       .  S
N2819      H2824   1.045       .  S
N2822      H2825   1.045       .  S
N2822      H2826   1.045       .  S
C2827      C2828   1.402       .  A
C2827      C2832   1.402       .  A
C2827      H2834   1.084       .  S
C2828      C2829   1.422       .  A
C2829      C2830   1.429       .  A
C2829      N2836   1.436       .  S
C2830      C2831   1.411       .  A
C2830      H2835   1.083       .  S
C2831      C2832   1.430       .  A
C2832      N2833   1.433       .  S
N2833      H2837   1.045       .  S
N2833      H2838   1.044       .  S
N2836      H2839   1.046       .  S
N2836      H2840   1.046       .  S
C2841      C2842   1.404       .  A
C2841      C2846   1.404       .  A
C2841      H2848   1.084       .  S
C2842      C2843   1.398       .  A
C2843      C2844   1.390       .  A
C2843      N2850   1.433       .  S
C2844      C2845   1.405       .  A
C2844      H2849   1.085       .  S
C2845      C2846   1.406       .  A
C2846      N2847   1.436       .  S
N2847      H2851   1.046       .  S
N2847      H2852   1.045       .  S
N2850      H2853   1.046       .  S
N2850      H2854   1.045       .  S
C2855      C2856   1.393       .  A
C2855      C2860   1.389       .  A
C2855      H2862   1.085       .  S
C2856      C2857   1.405       .  A
C2857      C2858   1.396       .  A
C2857      N2864   1.438       .  S
C2858      C2859   1.400       .  A
C2858      H2863   1.084       .  S
C2859      C2860   1.412       .  A
C2860      N2861   1.434       .  S
N2861      H2865   1.046       .  S
N2861      H2866   1.046       .  S
N2864      H2867   1.045       .  S
N2864      H2868   1.046       .  S
C2869      C2870   1.415       .  A
C2869      C2874   1.409       .  A
C2869      H2876   1.084       .  S
C2870      C2871   1.418       .  A
C2871      C2872   1.415       .  A
C2871      N2878   1.431       .  S
C2872      C2873   1.416       .  A
C2872      H2877   1.083       .  S
C2873      C2874   1.418       .  A
C2874      N2875   1.431       .  S
N2875      H2879   1.045       .  S
N2875      H2880   1.043       .  S
N2878      H2881   1.045       .  S
N2878      H2882   1.045       .  S
C2883      C2884   1.394       .  A
C2883      C2888   1.394       .  A
C2883      H2890   1.085       .  S
C2884      C2885   1.398   1_455  A
C2885      C2886   1.388   1_655  A
C2885      N2892   1.434       .  S
C2886      C2887   1.405       .  A
C2886      H2891   1.084       .  S
C2887      C2888   1.413       .  A
C2888      N2889   1.432       .  S
N2889      H2893   1.046       .  S
N2889      H2894   1.045       .  S
N2892      H2895   1.045       .  S
N2892      H2896   1.046       .  S
C2897      C2898   1.402       .  A
C2897      C2902   1.419       .  A
C2897      H2904   1.084       .  S
C2898      C2899   1.423       .  A
C2899      C2900   1.421       .  A
C2899      N2906   1.432       .  S
C2900      C2901   1.407       .  A
C2900      H2905   1.083       .  S
C2901      C2902   1.431       .  A
C2902      N2903   1.433       .  S
N2903      H2907   1.046       .  S
N2903      H2908   1.046       .  S
N2906      H2909   1.046       .  S
N2906      H2910   1.046       .  S
C2911      C2912   1.406       .  A
C2911      C2916   1.383       .  A
C2911      H2918   1.083       .  S
C2912      C2913   1.405       .  A
C2913      C2914   1.389       .  A
C2913      N2920   1.434       .  S
C2914      C2915   1.398       .  A
C2914      H2919   1.085       .  S
C2915      C2916   1.399       .  A
C2916      N2917   1.433       .  S
N2917      H2921   1.045       .  S
N2917      H2922   1.046       .  S
N2920      H2923   1.046       .  S
N2920      H2924   1.046       .  S
C2925      C2926   1.402       .  A
C2925      C2930   1.416       .  A
C2925      H2932   1.083       .  S
C2926      C2927   1.424       .  A
C2927      C2928   1.419       .  A
C2927      N2934   1.432       .  S
C2928      C2929   1.405       .  A
C2928      H2933   1.083       .  S
C2929      C2930   1.425       .  A
C2930      N2931   1.432       .  S
N2931      H2935   1.046       .  S
N2931      H2936   1.046       .  S
N2934      H2937   1.045       .  S
N2934      H2938   1.046       .  S
C2939      C2940   1.417       .  A
C2939      C2944   1.420       .  A
C2939      H2946   1.083       .  S
C2940      C2941   1.415       .  A
C2941      C2942   1.419       .  A
C2941      N2948   1.432       .  S
C2942      C2943   1.415       .  A
C2942      H2947   1.084       .  S
C2943      C2944   1.419       .  A
C2944      N2945   1.431       .  S
N2945      H2949   1.045       .  S
N2945      H2950   1.045       .  S
N2948      H2951   1.045       .  S
N2948      H2952   1.046       .  S
C2953      C2954   1.396       .  A
C2953      C2958   1.383       .  A
C2953      H2960   1.080       .  S
C2954      C2955   1.401       .  A
C2955      C2956   1.399       .  A
C2955      N2962   1.437       .  S
C2956      C2957   1.403       .  A
C2956      H2961   1.084       .  S
C2957      C2958   1.397       .  A
C2958      N2959   1.433       .  S
N2959      H2963   1.045       .  S
N2959      H2964   1.045       .  S
N2962      H2965   1.046       .  S
N2962      H2966   1.046       .  S
C2967      C2968   1.400       .  A
C2967      C2972   1.395       .  A
C2967      H2974   1.085       .  S
C2968      C2969   1.401       .  A
C2969      C2970   1.399       .  A
C2969      N2976   1.432       .  S
C2970      C2971   1.403       .  A
C2970      H2975   1.083       .  S
C2971      C2972   1.406       .  A
C2972      N2973   1.439       .  S
N2973      H2977   1.046       .  S
N2973      H2978   1.046       .  S
N2976      H2979   1.046       .  S
N2976      H2980   1.045       .  S
C2981      C2982   1.401       .  A
C2981      C2986   1.419       .  A
C2981      H2988   1.083       .  S
C2982      C2983   1.433       .  A
C2983      C2984   1.415       .  A
C2983      N2990   1.433       .  S
C2984      C2985   1.399       .  A
C2984      H2989   1.084       .  S
C2985      C2986   1.432       .  A
C2986      N2987   1.433       .  S
N2987      H2991   1.046       .  S
N2987      H2992   1.045       .  S
N2990      H2993   1.046       .  S
N2990      H2994   1.046       .  S
C2995      C2996   1.422       .  A
C2995      C3000   1.423       .  A
C2995      H3002   1.083       .  S
C2996      C2997   1.418       .  A
C2997      C2998   1.396       .  A
C2997      N3004   1.433       .  S
C2998      C2999   1.412       .  A
C2998      H3003   1.084       .  S
C2999      C3000   1.414       .  A
C3000      N3001   1.431       .  S
N3001      H3005   1.045       .  S
N3001      H3006   1.045       .  S
N3004      H3007   1.045       .  S
N3004      H3008   1.045       .  S
C3009      C3010   1.405       .  A
C3009      C3014   1.420       .  A
C3009      H3016   1.083       .  S
C3010      C3011   1.424       .  A
C3011      C3012   1.418       .  A
C3011      N3018   1.430       .  S
C3012      C3013   1.402       .  A
C3012      H3017   1.083       .  S
C3013      C3014   1.425       .  A
C3014      N3015   1.432       .  S
N3015      H3019   1.046       .  S
N3015      H3020   1.046       .  S
N3018      H3021   1.046       .  S
N3018      H3022   1.045       .  S
C3023      C3024   1.418       .  A
C3023      C3028   1.401       .  A
C3023      H3030   1.084       .  S
C3024      C3025   1.414       .  A
C3025      C3026   1.417       .  A
C3025      N3032   1.431       .  S
C3026      C3027   1.417       .  A
C3026      H3031   1.084       .  S
C3027      C3028   1.409       .  A
C3028      N3029   1.433       .  S
N3029      H3033   1.046       .  S
N3029      H3034   1.044       .  S
N3032      H3035   1.045       .  S
N3032      H3036   1.046       .  S
C3037      C3038   1.404       .  A
C3037      C3042   1.409       .  A
C3037      H3044   1.084       .  S
C3038      C3039   1.425       .  A
C3039      C3040   1.424       .  A
C3039      N3046   1.431       .  S
C3040      C3041   1.406       .  A
C3040      H3045   1.083       .  S
C3041      C3042   1.415       .  A
C3042      N3043   1.430       .  S
N3043      H3047   1.045       .  S
N3043      H3048   1.046       .  S
N3046      H3049   1.046       .  S
N3046      H3050   1.046       .  S
C3051      C3052   1.418       .  A
C3051      C3056   1.407       .  A
C3051      H3058   1.083       .  S
C3052      C3053   1.402       .  A
C3053      C3054   1.407       .  A
C3053      N3060   1.432       .  S
C3054      C3055   1.422       .  A
C3054      H3059   1.083       .  S
C3055      C3056   1.410       .  A
C3056      N3057   1.431       .  S
N3057      H3061   1.045       .  S
N3057      H3062   1.045       .  S
N3060      H3063   1.045       .  S
N3060      H3064   1.046       .  S
C3065      C3066   1.404       .  A
C3065      C3070   1.408       .  A
C3065      H3072   1.084       .  S
C3066      C3067   1.424       .  A
C3067      C3068   1.427       .  A
C3067      N3074   1.437       .  S
C3068      C3069   1.411       .  A
C3068      H3073   1.083       .  S
C3069      C3070   1.424       .  A
C3070      N3071   1.434       .  S
N3071      H3075   1.046       .  S
N3071      H3076   1.046       .  S
N3074      H3077   1.046       .  S
N3074      H3078   1.046       .  S
C3079      C3080   1.407       .  A
C3079      C3084   1.428       .  A
C3079      H3086   1.083       .  S
C3080      C3081   1.426       .  A
C3081      C3082   1.417       .  A
C3081      N3088   1.433       .  S
C3082      C3083   1.405       .  A
C3082      H3087   1.084       .  S
C3083      C3084   1.429       .  A
C3084      N3085   1.437       .  S
N3085      H3089   1.045       .  S
N3085      H3090   1.046       .  S
N3088      H3091   1.046       .  S
N3088      H3092   1.046       .  S
C3093      C3094   1.393       .  A
C3093      C3098   1.388       .  A
C3093      H3100   1.085       .  S
C3094      C3095   1.402       .  A
C3095      C3096   1.388       .  A
C3095      N3102   1.432       .  S
C3096      C3097   1.397       .  A
C3096      H3101   1.084       .  S
C3097      C3098   1.410       .  A
C3098      N3099   1.434       .  S
N3099      H3103   1.046       .  S
N3099      H3104   1.046       .  S
N3102      H3105   1.046       .  S
N3102      H3106   1.045       .  S
C3107      C3108   1.403       .  A
C3107      C3112   1.404       .  A
C3107      H3114   1.084       .  S
C3108      C3109   1.397       .  A
C3109      C3110   1.389       .  A
C3109      N3116   1.432       .  S
C3110      C3111   1.404       .  A
C3110      H3115   1.085       .  S
C3111      C3112   1.406       .  A
C3112      N3113   1.436       .  S
N3113      H3117   1.046       .  S
N3113      H3118   1.045       .  S
N3116      H3119   1.046       .  S
N3116      H3120   1.045       .  S
C3121      C3122   1.416       .  A
C3121      C3126   1.418       .  A
C3121      H3128   1.084       .  S
C3122      C3123   1.409       .  A
C3123      C3124   1.418       .  A
C3123      N3130   1.437       .  S
C3124      C3125   1.419       .  A
C3124      H3129   1.083       .  S
C3125      C3126   1.413       .  A
C3126      N3127   1.437       .  S
N3127      H3131   1.046       .  S
N3127      H3132   1.045       .  S
N3130      H3133   1.045       .  S
N3130      H3134   1.046       .  S
C3135      C3136   1.413       .  A
C3135      C3140   1.419       .  A
C3135      H3142   1.083       .  S
C3136      C3137   1.411       .  A
C3137      C3138   1.419       .  A
C3137      N3144   1.431       .  S
C3138      C3139   1.415       .  A
C3138      H3143   1.083       .  S
C3139      C3140   1.417       .  A
C3140      N3141   1.437       .  S
N3141      H3145   1.046       .  S
N3141      H3146   1.046       .  S
N3144      H3147   1.046       .  S
N3144      H3148   1.046       .  S
C3149      C3150   1.391       .  A
C3149      C3154   1.388       .  A
C3149      H3156   1.084       .  S
C3150      C3151   1.409       .  A
C3151      C3152   1.400       .  A
C3151      N3158   1.437       .  S
C3152      C3153   1.397       .  A
C3152      H3157   1.084       .  S
C3153      C3154   1.410       .  A
C3154      N3155   1.433       .  S
N3155      H3159   1.045       .  S
N3155      H3160   1.045       .  S
N3158      H3161   1.045       .  S
N3158      H3162   1.046       .  S
C3163      C3164   1.398       .  A
C3163      C3168   1.392       .  A
C3163      H3170   1.085       .  S
C3164      C3165   1.400       .  A
C3165      C3166   1.394       .  A
C3165      N3172   1.438       .  S
C3166      C3167   1.406       .  A
C3166      H3171   1.083       .  S
C3167      C3168   1.406       .  A
C3168      N3169   1.433       .  S
N3169      H3173   1.046       .  S
N3169      H3174   1.046       .  S
N3172      H3175   1.046       .  S
N3172      H3176   1.046       .  S
C3177      C3178   1.404       .  A
C3177      C3182   1.417       .  A
C3177      H3184   1.084       .  S
C3178      C3179   1.425       .  A
C3179      C3180   1.415       .  A
C3179      N3186   1.438       .  S
C3180      C3181   1.401       .  A
C3180      H3185   1.083       .  S
C3181      C3182   1.421       .  A
C3182      N3183   1.432       .  S
N3183      H3187   1.045       .  S
N3183      H3188   1.046       .  S
N3186      H3189   1.046       .  S
N3186      H3190   1.046       .  S
C3191      C3192   1.401       .  A
C3191      C3196   1.394       .  A
C3191      H3198   1.085       .  S
C3192      C3193   1.400       .  A
C3193      C3194   1.397       .  A
C3193      N3200   1.432       .  S
C3194      C3195   1.404       .  A
C3194      H3199   1.084   1_554  S
C3195      C3196   1.404       .  A
C3196      N3197   1.438       .  S
N3197      H3201   1.046       .  S
N3197      H3202   1.046       .  S
N3200      H3203   1.046   1_554  S
N3200      H3204   1.045       .  S
C3205      C3206   1.404       .  A
C3205      C3210   1.408       .  A
C3205      H3212   1.084       .  S
C3206      C3207   1.421       .  A
C3207      C3208   1.424       .  A
C3207      N3214   1.431       .  S
C3208      C3209   1.410       .  A
C3208      H3213   1.083       .  S
C3209      C3210   1.425       .  A
C3210      N3211   1.434       .  S
N3211      H3215   1.046       .  S
N3211      H3216   1.046       .  S
N3214      H3217   1.046       .  S
N3214      H3218   1.045       .  S
C3219      C3220   1.390       .  A
C3219      C3224   1.391       .  A
C3219      H3226   1.085       .  S
C3220      C3221   1.410       .  A
C3221      C3222   1.407       .  A
C3221      N3228   1.437       .  S
C3222      C3223   1.399       .  A
C3222      H3227   1.083       .  S
C3223      C3224   1.413       .  A
C3224      N3225   1.432       .  S
N3225      H3229   1.046       .  S
N3225      H3230   1.045       .  S
N3228      H3231   1.046       .  S
N3228      H3232   1.046       .  S
C3233      C3234   1.415       .  A
C3233      C3238   1.411       .  A
C3233      H3240   1.084       .  S
C3234      C3235   1.418       .  A
C3235      C3236   1.413       .  A
C3235      N3242   1.431       .  S
C3236      C3237   1.413       .  A
C3236      H3241   1.083       .  S
C3237      C3238   1.412       .  A
C3238      N3239   1.433       .  S
N3239      H3243   1.046       .  S
N3239      H3244   1.046       .  S
N3242      H3245   1.046       .  S
N3242      H3246   1.045       .  S
C3247      C3248   1.420       .  A
C3247      C3252   1.404       .  A
C3247      H3254   1.083       .  S
C3248      C3249   1.414       .  A
C3249      C3250   1.411       .  A
C3249      N3256   1.432       .  S
C3250      C3251   1.417       .  A
C3250      H3255   1.084       .  S
C3251      C3252   1.407       .  A
C3252      N3253   1.432       .  S
N3253      H3257   1.046       .  S
N3253      H3258   1.045       .  S
N3256      H3259   1.045       .  S
N3256      H3260   1.045       .  S
C3261      C3262   1.418       .  A
C3261      C3266   1.416       .  A
C3261      H3268   1.083       .  S
C3262      C3263   1.411       .  A
C3263      C3264   1.418       .  A
C3263      N3270   1.437       .  S
C3264      C3265   1.419       .  A
C3264      H3269   1.083       .  S
C3265      C3266   1.416       .  A
C3266      N3267   1.432       .  S
N3267      H3271   1.045       .  S
N3267      H3272   1.045       .  S
N3270      H3273   1.046       .  S
N3270      H3274   1.045       .  S
C3275      C3276   1.398       .  A
C3275      C3280   1.407       .  A
C3275      H3282   1.083       .  S
C3276      C3277   1.414       .  A
C3277      C3278   1.391       .  A
C3277      N3284   1.432       .  S
C3278      C3279   1.391       .  A
C3278      H3283   1.085       .  S
C3279      C3280   1.412       .  A
C3280      N3281   1.437       .  S
N3281      H3285   1.046       .  S
N3281      H3286   1.045       .  S
N3284      H3287   1.045       .  S
N3284      H3288   1.045       .  S
C3289      C3290   1.405       .  A
C3289      C3294   1.425       .  A
C3289      H3296   1.083       .  S
C3290      C3291   1.432       .  A
C3291      C3292   1.403       .  A
C3291      N3298   1.434       .  S
C3292      C3293   1.393       .  A
C3292      H3297   1.084       .  S
C3293      C3294   1.428       .  A
C3294      N3295   1.437       .  S
N3295      H3299   1.045       .  S
N3295      H3300   1.046       .  S
N3298      H3301   1.046       .  S
N3298      H3302   1.046       .  S
C3303      C3304   1.400       .  A
C3303      C3308   1.400       .  A
C3303      H3310   1.084       .  S
C3304      C3305   1.411       .  A
C3305      C3306   1.389       .  A
C3305      N3312   1.432       .  S
C3306      C3307   1.392       .  A
C3306      H3311   1.085       .  S
C3307      C3308   1.406       .  A
C3308      N3309   1.437       .  S
N3309      H3313   1.046       .  S
N3309      H3314   1.046       .  S
N3312      H3315   1.045       .  S
N3312      H3316   1.046       .  S
C3317      C3318   1.399       .  A
C3317      C3322   1.378       .  A
C3317      H3324   1.084       .  S
C3318      C3319   1.414       .  A
C3319      C3320   1.398       .  A
C3319      N3326   1.438       .  S
C3320      C3321   1.397       .  A
C3320      H3325   1.084       .  S
C3321      C3322   1.408       .  A
C3322      N3323   1.433       .  S
N3323      H3327   1.044       .  S
N3323      H3328   1.043       .  S
N3326      H3329   1.045       .  S
N3326      H3330   1.046       .  S
C3331      C3332   1.418       .  A
C3331      C3336   1.413       .  A
C3331      H3338   1.084       .  S
C3332      C3333   1.417       .  A
C3333      C3334   1.415       .  A
C3333      N3340   1.431       .  S
C3334      C3335   1.415       .  A
C3334      H3339   1.083       .  S
C3335      C3336   1.414       .  A
C3336      N3337   1.432       .  S
N3337      H3341   1.045       .  S
N3337      H3342   1.046       .  S
N3340      H3343   1.045       .  S
N3340      H3344   1.045       .  S
C3345      C3346   1.401       .  A
C3345      C3350   1.412       .  A
C3345      H3352   1.084       .  S
C3346      C3347   1.424       .  A
C3347      C3348   1.421       .  A
C3347      N3354   1.438       .  S
C3348      C3349   1.406       .  A
C3348      H3353   1.083       .  S
C3349      C3350   1.435       .  A
C3350      N3351   1.433       .  S
N3351      H3355   1.045       .  S
N3351      H3356   1.045       .  S
N3354      H3357   1.046       .  S
N3354      H3358   1.046       .  S
C3359      C3360   1.405       .  A
C3359      C3364   1.424       .  A
C3359      H3366   1.083       .  S
C3360      C3361   1.434       .  A
C3361      C3362   1.402       .  A
C3361      N3368   1.435       .  S
C3362      C3363   1.392       .  A
C3362      H3367   1.084       .  S
C3363      C3364   1.424       .  A
C3364      N3365   1.431       .  S
N3365      H3369   1.045       .  S
N3365      H3370   1.046       .  S
N3368      H3371   1.046       .  S
N3368      H3372   1.046       .  S
C3373      C3374   1.417       .  A
C3373      C3378   1.417       .  A
C3373      H3380   1.083       .  S
C3374      C3375   1.419       .  A
C3375      C3376   1.412       .  A
C3375      N3382   1.432       .  S
C3376      C3377   1.416       .  A
C3376      H3381   1.084       .  S
C3377      C3378   1.416       .  A
C3378      N3379   1.431       .  S
N3379      H3383   1.045       .  S
N3379      H3384   1.045       .  S
N3382      H3385   1.044       .  S
N3382      H3386   1.046       .  S
C3387      C3388   1.395       .  A
C3387      C3392   1.392       .  A
C3387      H3394   1.085       .  S
C3388      C3389   1.405       .  A
C3389      C3390   1.384       .  A
C3389      N3396   1.432   1_565  S
C3390      C3391   1.400       .  A
C3390      H3395   1.085       .  S
C3391      C3392   1.411       .  A
C3392      N3393   1.439       .  S
N3393      H3397   1.046       .  S
N3393      H3398   1.046       .  S
N3396      H3399   1.045       .  S
N3396      H3400   1.043       .  S
C3401      C3402   1.398       .  A
C3401      C3406   1.406       .  A
C3401      H3408   1.083       .  S
C3402      C3403   1.435       .  A
C3403      C3404   1.404       .  A
C3403      N3410   1.434       .  S
C3404      C3405   1.391       .  A
C3404      H3409   1.084       .  S
C3405      C3406   1.429       .  A
C3406      N3407   1.434       .  S
N3407      H3411   1.043       .  S
N3407      H3412   1.046       .  S
N3410      H3413   1.045       .  S
N3410      H3414   1.046       .  S
C3415      C3416   1.412       .  A
C3415      C3420   1.409       .  A
C3415      H3422   1.084       .  S
C3416      C3417   1.411       .  A
C3417      C3418   1.422       .  A
C3417      N3424   1.431       .  S
C3418      C3419   1.418       .  A
C3418      H3423   1.083       .  S
C3419      C3420   1.417       .  A
C3420      N3421   1.432       .  S
N3421      H3425   1.045       .  S
N3421      H3426   1.045       .  S
N3424      H3427   1.045       .  S
N3424      H3428   1.046       .  S
C3429      C3430   1.403       .  A
C3429      C3434   1.409       .  A
C3429      H3436   1.084       .  S
C3430      C3431   1.419       .  A
C3431      C3432   1.411       .  A
C3431      N3438   1.433       .  S
C3432      C3433   1.403       .  A
C3432      H3437   1.084       .  S
C3433      C3434   1.423       .  A
C3434      N3435   1.432       .  S
N3435      H3439   1.045       .  S
N3435      H3440   1.044       .  S
N3438      H3441   1.046       .  S
N3438      H3442   1.046       .  S
C3443      C3444   1.415       .  A
C3443      C3448   1.417       .  A
C3443      H3450   1.083       .  S
C3444      C3445   1.411       .  A
C3445      C3446   1.421       .  A
C3445      N3452   1.431       .  S
C3446      C3447   1.418       .  A
C3446      H3451   1.083       .  S
C3447      C3448   1.413       .  A
C3448      N3449   1.432       .  S
N3449      H3453   1.045       .  S
N3449      H3454   1.046       .  S
N3452      H3455   1.045       .  S
N3452      H3456   1.046       .  S
C3457      C3458   1.394       .  A
C3457      C3462   1.393       .  A
C3457      H3464   1.085       .  S
C3458      C3459   1.407       .  A
C3459      C3460   1.388       .  A
C3459      N3466   1.432       .  S
C3460      C3461   1.394       .  A
C3460      H3465   1.085       .  S
C3461      C3462   1.410       .  A
C3462      N3463   1.433       .  S
N3463      H3467   1.046       .  S
N3463      H3468   1.045       .  S
N3466      H3469   1.046       .  S
N3466      H3470   1.045       .  S
C3471      C3472   1.396       .  A
C3471      C3476   1.384       .  A
C3471      H3478   1.084       .  S
C3472      C3473   1.410       .  A
C3473      C3474   1.397       .  A
C3473      N3480   1.437       .  S
C3474      C3475   1.399       .  A
C3474      H3479   1.084       .  S
C3475      C3476   1.417       .  A
C3476      N3477   1.432       .  S
N3477      H3481   1.041       .  S
N3477      H3482   1.042       .  S
N3480      H3483   1.045       .  S
N3480      H3484   1.046       .  S
C3485      C3486   1.401       .  A
C3485      C3490   1.411       .  A
C3485      H3492   1.084       .  S
C3486      C3487   1.426       .  A
C3487      C3488   1.422       .  A
C3487      N3494   1.432       .  S
C3488      C3489   1.406       .  A
C3488      H3493   1.083       .  S
C3489      C3490   1.436       .  A
C3490      N3491   1.433       .  S
N3491      H3495   1.046       .  S
N3491      H3496   1.045       .  S
N3494      H3497   1.046       .  S
N3494      H3498   1.046       .  S
C3499      C3500   1.418       .  A
C3499      C3504   1.409       .  A
C3499      H3506   1.084       .  S
C3500      C3501   1.406       .  A
C3501      C3502   1.412       .  A
C3501      N3508   1.432       .  S
C3502      C3503   1.419       .  A
C3502      H3507   1.083       .  S
C3503      C3504   1.414       .  A
C3504      N3505   1.432       .  S
N3505      H3509   1.045       .  S
N3505      H3510   1.045       .  S
N3508      H3511   1.046       .  S
N3508      H3512   1.045       .  S
C3513      C3514   1.406       .  A
C3513      C3518   1.390       .  A
C3513      H3520   1.082       .  S
C3514      C3515   1.401       .  A
C3515      C3516   1.387       .  A
C3515      N3522   1.433       .  S
C3516      C3517   1.399       .  A
C3516      H3521   1.085       .  S
C3517      C3518   1.396       .  A
C3518      N3519   1.438       .  S
N3519      H3523   1.046       .  S
N3519      H3524   1.045       .  S
N3522      H3525   1.046       .  S
N3522      H3526   1.046       .  S
C3527      C3528   1.403       .  A
C3527      C3532   1.387       .  A
C3527      H3534   1.082       .  S
C3528      C3529   1.397       .  A
C3529      C3530   1.395       .  A
C3529      N3536   1.432       .  S
C3530      C3531   1.408       .  A
C3530      H3535   1.084       .  S
C3531      C3532   1.399       .  A
C3532      N3533   1.433       .  S
N3533      H3537   1.046       .  S
N3533      H3538   1.046       .  S
N3536      H3539   1.046       .  S
N3536      H3540   1.044       .  S
C3541      C3542   1.408       .  A
C3541      C3546   1.416       .  A
C3541      H3548   1.084       .  S
C3542      C3543   1.414       .  A
C3543      C3544   1.415       .  A
C3543      N3550   1.431       .  S
C3544      C3545   1.412       .  A
C3544      H3549   1.083       .  S
C3545      C3546   1.418       .  A
C3546      N3547   1.439       .  S
N3547      H3551   1.046       .  S
N3547      H3552   1.045       .  S
N3550      H3553   1.045       .  S
N3550      H3554   1.046       .  S
C3555      C3556   1.409       .  A
C3555      C3560   1.423       .  A
C3555      H3562   1.083       .  S
C3556      C3557   1.426       .  A
C3557      C3558   1.408       .  A
C3557      N3564   1.434       .  S
C3558      C3559   1.403       .  A
C3558      H3563   1.084       .  S
C3559      C3560   1.421       .  A
C3560      N3561   1.431       .  S
N3561      H3565   1.045       .  S
N3561      H3566   1.046       .  S
N3564      H3567   1.046       .  S
N3564      H3568   1.046       .  S
C3569      C3570   1.409       .  A
C3569      C3574   1.401       .  A
C3569      H3576   1.074       .  S
C3570      C3571   1.417       .  A
C3571      C3572   1.418       .  A
C3571      N3578   1.437       .  S
C3572      C3573   1.417       .  A
C3572      H3577   1.083       .  S
C3573      C3574   1.413       .  A
C3574      N3575   1.434       .  S
N3575      H3579   1.045       .  S
N3575      H3580   1.045       .  S
N3578      H3581   1.043       .  S
N3578      H3582   1.046       .  S
C3583      C3584   1.407       .  A
C3583      C3588   1.422       .  A
C3583      H3590   1.083       .  S
C3584      C3585   1.431       .  A
C3585      C3586   1.408       .  A
C3585      N3592   1.434       .  S
C3586      C3587   1.400       .  A
C3586      H3591   1.084       .  S
C3587      C3588   1.423       .  A
C3588      N3589   1.431       .  S
N3589      H3593   1.046       .  S
N3589      H3594   1.046       .  S
N3592      H3595   1.046       .  S
N3592      H3596   1.046       .  S
C3597      C3598   1.393       .  A
C3597      C3602   1.406       .  A
C3597      H3604   1.084       .  S
C3598      C3599   1.432       .  A
C3599      C3600   1.414       .  A
C3599      N3606   1.433       .  S
C3600      C3601   1.398       .  A
C3600      H3605   1.084       .  S
C3601      C3602   1.441       .  A
C3602      N3603   1.434       .  S
N3603      H3607   1.045       .  S
N3603      H3608   1.045       .  S
N3606      H3609   1.046       .  S
N3606      H3610   1.046       .  S
C3611      C3612   1.404       .  A
C3611      C3616   1.413       .  A
C3611      H3618   1.084       .  S
C3612      C3613   1.428       .  A
C3613      C3614   1.415       .  A
C3613      N3620   1.431       .  S
C3614      C3615   1.405       .  A
C3614      H3619   1.084       .  S
C3615      C3616   1.422       .  A
C3616      N3617   1.433       .  S
N3617      H3621   1.046       .  S
N3617      H3622   1.046       .  S
N3620      H3623   1.044       .  S
N3620      H3624   1.044       .  S
C3625      C3626   1.408       .  A
C3625      C3630   1.398       .  A
C3625      H3632   1.085       .  S
C3626      C3627   1.406       .  A
C3627      C3628   1.386       .  A
C3627      N3634   1.433       .  S
C3628      C3629   1.400       .  A
C3628      H3633   1.083       .  S
C3629      C3630   1.405       .  A
C3630      N3631   1.433       .  S
N3631      H3635   1.046       .  S
N3631      H3636   1.046       .  S
N3634      H3637   1.045       .  S
N3634      H3638   1.044       .  S
C3639      C3640   1.411       .  A
C3639      C3644   1.405       .  A
C3639      H3646   1.084       .  S
C3640      C3641   1.405       .  A
C3641      C3642   1.412       .  A
C3641      N3648   1.431       .  S
C3642      C3643   1.415       .  A
C3642      H3647   1.083       .  S
C3643      C3644   1.413       .  A
C3644      N3645   1.432       .  S
N3645      H3649   1.045       .  S
N3645      H3650   1.045       .  S
N3648      H3651   1.046       .  S
N3648      H3652   1.046       .  S
C3653      C3654   1.403       .  A
C3653      C3658   1.388       .  A
C3653      H3660   1.084       .  S
C3654      C3655   1.414       .  A
C3655      C3656   1.394       .  A
C3655      N3662   1.433       .  S
C3656      C3657   1.393       .  A
C3656      H3661   1.085       .  S
C3657      C3658   1.399       .  A
C3658      N3659   1.434       .  S
N3659      H3663   1.046       .  S
N3659      H3664   1.045       .  S
N3662      H3665   1.046       .  S
N3662      H3666   1.046       .  S
C3667      C3668   1.405       .  A
C3667      C3672   1.389       .  A
C3667      H3674   1.085       .  S
C3668      C3669   1.407       .  A
C3669      C3670   1.394       .  A
C3669      N3676   1.432       .  S
C3670      C3671   1.402       .  A
C3670      H3675   1.084       .  S
C3671      C3672   1.399       .  A
C3672      N3673   1.438       .  S
N3673      H3677   1.046       .  S
N3673      H3678   1.045       .  S
N3676      H3679   1.045       .  S
N3676      H3680   1.046       .  S
C3681      C3682   1.416       .  A
C3681      C3686   1.402       .  A
C3681      H3688   1.083       .  S
C3682      C3683   1.413       .  A
C3683      C3684   1.418       .  A
C3683      N3690   1.431       .  S
C3684      C3685   1.419       .  A
C3684      H3689   1.083       .  S
C3685      C3686   1.409       .  A
C3686      N3687   1.433       .  S
N3687      H3691   1.046       .  S
N3687      H3692   1.046       .  S
N3690      H3693   1.045       .  S
N3690      H3694   1.045       .  S
C3695      C3696   1.421       .  A
C3695      C3700   1.418       .  A
C3695      H3702   1.083       .  S
C3696      C3697   1.416       .  A
C3697      C3698   1.402       .  A
C3697      N3704   1.433       .  S
C3698      C3699   1.417       .  A
C3698      H3703   1.082       .  S
C3699      C3700   1.414       .  A
C3700      N3701   1.431       .  S
N3701      H3705   1.045       .  S
N3701      H3706   1.045       .  S
N3704      H3707   1.045       .  S
N3704      H3708   1.045       .  S
C3709      C3710   1.415       .  A
C3709      C3714   1.424       .  A
C3709      H3716   1.083       .  S
C3710      C3711   1.415       .  A
C3711      C3712   1.416       .  A
C3711      N3718   1.432       .  S
C3712      C3713   1.411       .  A
C3712      H3717   1.084       .  S
C3713      C3714   1.417       .  A
C3714      N3715   1.437       .  S
N3715      H3719   1.046       .  S
N3715      H3720   1.046       .  S
N3718      H3721   1.046       .  S
N3718      H3722   1.045       .  S
C3723      C3724   1.414       .  A
C3723      C3728   1.406       .  A
C3723      H3730   1.084       .  S
C3724      C3725   1.419       .  A
C3725      C3726   1.420       .  A
C3725      N3732   1.431       .  S
C3726      C3727   1.417       .  A
C3726      H3731   1.083       .  S
C3727      C3728   1.417       .  A
C3728      N3729   1.432       .  S
N3729      H3733   1.045       .  S
N3729      H3734   1.045       .  S
N3732      H3735   1.045       .  S
N3732      H3736   1.045       .  S
C3737      C3738   1.399       .  A
C3737      C3742   1.389       .  A
C3737      H3744   1.085       .  S
C3738      C3739   1.412       .  A
C3739      C3740   1.396       .  A
C3739      N3746   1.438       .  S
C3740      C3741   1.400       .  A
C3740      H3745   1.082       .  S
C3741      C3742   1.412       .  A
C3742      N3743   1.434       .  S
N3743      H3747   1.043       .  S
N3743      H3748   1.045       .  S
N3746      H3749   1.044       .  S
N3746      H3750   1.046       .  S
C3751      C3752   1.404       .  A
C3751      C3756   1.393       .  A
C3751      H3758   1.084       .  S
C3752      C3753   1.396       .  A
C3753      C3754   1.390       .  A
C3753      N3760   1.433       .  S
C3754      C3755   1.405       .  A
C3754      H3759   1.085       .  S
C3755      C3756   1.403       .  A
C3756      N3757   1.432       .  S
N3757      H3761   1.045       .  S
N3757      H3762   1.046       .  S
N3760      H3763   1.046       .  S
N3760      H3764   1.045       .  S
C3765      C3766   1.417       .  A
C3765      C3770   1.416       .  A
C3765      H3772   1.084       .  S
C3766      C3767   1.407       .  A
C3767      C3768   1.415       .  A
C3767      N3774   1.432       .  S
C3768      C3769   1.419       .  A
C3768      H3773   1.083       .  S
C3769      C3770   1.418       .  A
C3770      N3771   1.432       .  S
N3771      H3775   1.045       .  S
N3771      H3776   1.045       .  S
N3774      H3777   1.046       .  S
N3774      H3778   1.045       .  S
C3779      C3780   1.397       .  A
C3779      C3784   1.385       .  A
C3779      H3786   1.085       .  S
C3780      C3781   1.408       .  A
C3781      C3782   1.384       .  A
C3781      N3788   1.431       .  S
C3782      C3783   1.398       .  A
C3782      H3787   1.085       .  S
C3783      C3784   1.411       .  A
C3784      N3785   1.432       .  S
N3785      H3789   1.046       .  S
N3785      H3790   1.042       .  S
N3788      H3791   1.046       .  S
N3788      H3792   1.043       .  S
C3793      C3794   1.420       .  A
C3793      C3798   1.428       .  A
C3793      H3800   1.083       .  S
C3794      C3795   1.410       .  A
C3795      C3796   1.411       .  A
C3795      N3802   1.432       .  S
C3796      C3797   1.420       .  A
C3796      H3801   1.083       .  S
C3797      C3798   1.415       .  A
C3798      N3799   1.436       .  S
N3799      H3803   1.046       .  S
N3799      H3804   1.046       .  S
N3802      H3805   1.046       .  S
N3802      H3806   1.046       .  S
C3807      C3808   1.417       .  A
C3807      C3812   1.418       .  A
C3807      H3814   1.083       .  S
C3808      C3809   1.419       .  A
C3809      C3810   1.406       .  A
C3809      N3816   1.432       .  S
C3810      C3811   1.415       .  A
C3810      H3815   1.084       .  S
C3811      C3812   1.419       .  A
C3812      N3813   1.431       .  S
N3813      H3817   1.045       .  S
N3813      H3818   1.045       .  S
N3816      H3819   1.045       .  S
N3816      H3820   1.045       .  S
C3821      C3822   1.399       .  A
C3821      C3826   1.406       .  A
C3821      H3828   1.083       .  S
C3822      C3823   1.414       .  A
C3823      C3824   1.389       .  A
C3823      N3830   1.431       .  S
C3824      C3825   1.389       .  A
C3824      H3829   1.084       .  S
C3825      C3826   1.409       .  A
C3826      N3827   1.436       .  S
N3827      H3831   1.046       .  S
N3827      H3832   1.045       .  S
N3830      H3833   1.045       .  S
N3830      H3834   1.045       .  S
C3835      C3836   1.402       .  A
C3835      C3840   1.392       .  A
C3835      H3842   1.085       .  S
C3836      C3837   1.402       .  A
C3837      C3838   1.402       .  A
C3837      N3844   1.436       .  S
C3838      C3839   1.405       .  A
C3838      H3843   1.084       .  S
C3839      C3840   1.403       .  A
C3840      N3841   1.434       .  S
N3841      H3845   1.046       .  S
N3841      H3846   1.046       .  S
N3844      H3847   1.045       .  S
N3844      H3848   1.046       .  S
C3849      C3850   1.398       .  A
C3849      C3854   1.389       .  A
C3849      H3856   1.082       .  S
C3850      C3851   1.414       .  A
C3851      C3852   1.392       .  A
C3851      N3858   1.433       .  S
C3852      C3853   1.391       .  A
C3852      H3857   1.084       .  S
C3853      C3854   1.400       .  A
C3854      N3855   1.431       .  S
N3855      H3859   1.045       .  S
N3855      H3860   1.044       .  S
N3858      H3861   1.046       .  S
N3858      H3862   1.044       .  S
C3863      C3864   1.404       .  A
C3863      C3868   1.415       .  A
C3863      H3870   1.084       .  S
C3864      C3865   1.415       .  A
C3865      C3866   1.415       .  A
C3865      N3872   1.433       .  S
C3866      C3867   1.411       .  A
C3866      H3871   1.083       .  S
C3867      C3868   1.420       .  A
C3868      N3869   1.432       .  S
N3869      H3873   1.046       .  S
N3869      H3874   1.045       .  S
N3872      H3875   1.045       .  S
N3872      H3876   1.046       .  S
C3877      C3878   1.419       .  A
C3877      C3882   1.418       .  A
C3877      H3884   1.083       .  S
C3878      C3879   1.418       .  A
C3879      C3880   1.400       .  A
C3879      N3886   1.434       .  S
C3880      C3881   1.414       .  A
C3880      H3885   1.082       .  S
C3881      C3882   1.416       .  A
C3882      N3883   1.431       .  S
N3883      H3887   1.045       .  S
N3883      H3888   1.046       .  S
N3886      H3889   1.044       .  S
N3886      H3890   1.045       .  S
C3891      C3892   1.395       .  A
C3891      C3896   1.408       .  A
C3891      H3898   1.084       .  S
C3892      C3893   1.434       .  A
C3893      C3894   1.407       .  A
C3893      N3900   1.434       .  S
C3894      C3895   1.393       .  A
C3894      H3899   1.084       .  S
C3895      C3896   1.430       .  A
C3896      N3897   1.433       .  S
N3897      H3901   1.046       .  S
N3897      H3902   1.046       .  S
N3900      H3903   1.046       .  S
N3900      H3904   1.046       .  S
C3905      C3906   1.403       .  A
C3905      C3910   1.414       .  A
C3905      H3912   1.083       .  S
C3906      C3907   1.423       .  A
C3907      C3908   1.412       .  A
C3907      N3914   1.433       .  S
C3908      C3909   1.401       .  A
C3908      H3913   1.084       .  S
C3909      C3910   1.419       .  A
C3910      N3911   1.431       .  S
N3911      H3915   1.046       .  S
N3911      H3916   1.045       .  S
N3914      H3917   1.045       .  S
N3914      H3918   1.046       .  S
C3919      C3920   1.425       .  A
C3919      C3924   1.405       .  A
C3919      H3926   1.083       .  S
C3920      C3921   1.401       .  A
C3921      C3922   1.410       .  A
C3921      N3928   1.431       .  S
C3922      C3923   1.422       .  A
C3922      H3927   1.084       .  S
C3923      C3924   1.405       .  A
C3924      N3925   1.432       .  S
N3925      H3929   1.045       .  S
N3925      H3930   1.046       .  S
N3928      H3931   1.046       .  S
N3928      H3932   1.045       .  S
C3933      C3934   1.415       .  A
C3933      C3938   1.417       .  A
C3933      H3940   1.083       .  S
C3934      C3935   1.414       .  A
C3935      C3936   1.412       .  A
C3935      N3942   1.432       .  S
C3936      C3937   1.415       .  A
C3936      H3941   1.083       .  S
C3937      C3938   1.419       .  A
C3938      N3939   1.438       .  S
N3939      H3943   1.046       .  S
N3939      H3944   1.042       .  S
N3942      H3945   1.046       .  S
N3942      H3946   1.045       .  S
C3947      C3948   1.407       .  A
C3947      C3952   1.404       .  A
C3947      H3954   1.085       .  S
C3948      C3949   1.420       .  A
C3949      C3950   1.416       .  A
C3949      N3956   1.437       .  S
C3950      C3951   1.411       .  A
C3950      H3955   1.084       .  S
C3951      C3952   1.418       .  A
C3952      N3953   1.434       .  S
N3953      H3957   1.045       .  S
N3953      H3958   1.045       .  S
N3956      H3959   1.043       .  S
N3956      H3960   1.046       .  S
C3961      C3962   1.402       .  A
C3961      C3966   1.414       .  A
C3961      H3968   1.084       .  S
C3962      C3963   1.428       .  A
C3963      C3964   1.417       .  A
C3963      N3970   1.438       .  S
C3964      C3965   1.403       .  A
C3964      H3969   1.083       .  S
C3965      C3966   1.435       .  A
C3966      N3967   1.433       .  S
N3967      H3971   1.045       .  S
N3967      H3972   1.045       .  S
N3970      H3973   1.045       .  S
N3970      H3974   1.046       .  S
C3975      C3976   1.413       .  A
C3975      C3980   1.412       .  A
C3975      H3982   1.084       .  S
C3976      C3977   1.410       .  A
C3977      C3978   1.419       .  A
C3977      N3984   1.431       .  S
C3978      C3979   1.416       .  A
C3978      H3983   1.083       .  S
C3979      C3980   1.421       .  A
C3980      N3981   1.432       .  S
N3981      H3985   1.045       .  S
N3981      H3986   1.046       .  S
N3984      H3987   1.046       .  S
N3984      H3988   1.046       .  S
C3989      C3990   1.405       .  A
C3989      C3994   1.401       .  A
C3989      H3996   1.084       .  S
C3990      C3991   1.399       .  A
C3991      C3992   1.390       .  A
C3991      N3998   1.438       .  S
C3992      C3993   1.405       .  A
C3992      H3997   1.085       .  S
C3993      C3994   1.400       .  A
C3994      N3995   1.432       .  S
N3995      H3999   1.045       .  S
N3995      H4000   1.044       .  S
N3998      H4001   1.045       .  S
N3998      H4002   1.046       .  S
C4003      C4004   1.398       .  A
C4003      C4008   1.393       .  A
C4003      H4010   1.085       .  S
C4004      C4005   1.408       .  A
C4005      C4006   1.397       .  A
C4005      N4012   1.437       .  S
C4006      C4007   1.397       .  A
C4006      H4011   1.084       .  S
C4007      C4008   1.407       .  A
C4008      N4009   1.433       .  S
N4009      H4013   1.046       .  S
N4009      H4014   1.046       .  S
N4012      H4015   1.045       .  S
N4012      H4016   1.045       .  S
C4017      C4018   1.400       .  A
C4017      C4022   1.410       .  A
C4017      H4024   1.084       .  S
C4018      C4019   1.431       .  A
C4019      C4020   1.413       .  A
C4019      N4026   1.432       .  S
C4020      C4021   1.403       .  A
C4020      H4025   1.084       .  S
C4021      C4022   1.425       .  A
C4022      N4023   1.433       .  S
N4023      H4027   1.046       .  S
N4023      H4028   1.046       .  S
N4026      H4029   1.045       .  S
N4026      H4030   1.044       .  S
C4031      C4032   1.409       .  A
C4031      C4036   1.417       .  A
C4031      H4038   1.083       .  S
C4032      C4033   1.424       .  A
C4033      C4034   1.417       .  A
C4033      N4040   1.432       .  S
C4034      C4035   1.404       .  A
C4034      H4039   1.084       .  S
C4035      C4036   1.420       .  A
C4036      N4037   1.433       .  S
N4037      H4041   1.045       .  S
N4037      H4042   1.046       .  S
N4040      H4043   1.046       .  S
N4040      H4044   1.046       .  S
C4045      C4046   1.404       .  A
C4045      C4050   1.384       .  A
C4045      H4052   1.083       .  S
C4046      C4047   1.401       .  A
C4047      C4048   1.403       .  A
C4047      N4054   1.438       .  S
C4048      C4049   1.412       .  A
C4048      H4053   1.083       .  S
C4049      C4050   1.401       .  A
C4050      N4051   1.439       .  S
N4051      H4055   1.046       .  S
N4051      H4056   1.045       .  S
N4054      H4057   1.046       .  S
N4054      H4058   1.045       .  S
C4059      C4060   1.396       .  A
C4059      C4064   1.395       .  A
C4059      H4066   1.084       .  S
C4060      C4061   1.415       .  A
C4061      C4062   1.385       .  A
C4061      N4068   1.438       .  S
C4062      C4063   1.397       .  A
C4062      H4067   1.085       .  S
C4063      C4064   1.421       .  A
C4064      N4065   1.433       .  S
N4065      H4069   1.046       .  S
N4065      H4070   1.040       .  S
N4068      H4071   1.042       .  S
N4068      H4072   1.045       .  S
C4073      C4074   1.406       .  A
C4073      C4078   1.413       .  A
C4073      H4080   1.084       .  S
C4074      C4075   1.420       .  A
C4075      C4076   1.423       .  A
C4075      N4082   1.431       .  S
C4076      C4077   1.410       .  A
C4076      H4081   1.083       .  S
C4077      C4078   1.424       .  A
C4078      N4079   1.434       .  S
N4079      H4083   1.046       .  S
N4079      H4084   1.046       .  S
N4082      H4085   1.045       .  S
N4082      H4086   1.046       .  S
C4087      C4088   1.419       .  A
C4087      C4092   1.419       .  A
C4087      H4094   1.083       .  S
C4088      C4089   1.418       .  A
C4089      C4090   1.422       .  A
C4089      N4096   1.437       .  S
C4090      C4091   1.414       .  A
C4090      H4095   1.083       .  S
C4091      C4092   1.411       .  A
C4092      N4093   1.432       .  S
N4093      H4097   1.045       .  S
N4093      H4098   1.046       .  S
N4096      H4099   1.046       .  S
N4096      H4100   1.046       .  S
C4101      C4102   1.402       .  A
C4101      C4106   1.377       .  A
C4101      H4108   1.086       .  S
C4102      C4103   1.399       .  A
C4103      C4104   1.400       .  A
C4103      N4110   1.436       .  S
C4104      C4105   1.411       .  A
C4104      H4109   1.083       .  S
C4105      C4106   1.409       .  A
C4106      N4107   1.434       .  S
N4107      H4111   1.044       .  S
N4107      H4112   1.046       .  S
N4110      H4113   1.046       .  S
N4110      H4114   1.046       .  S
C4115      C4116   1.392       .  A
C4115      C4120   1.387       .  A
C4115      H4122   1.085       .  S
C4116      C4117   1.407       .  A
C4117      C4118   1.407       .  A
C4117      N4124   1.435       .  S
C4118      C4119   1.402       .  A
C4118      H4123   1.084       .  S
C4119      C4120   1.420       .  A
C4120      N4121   1.433       .  S
N4121      H4125   1.043       .  S
N4121      H4126   1.043       .  S
N4124      H4127   1.045       .  S
N4124      H4128   1.045       .  S
C4129      C4130   1.415       .  A
C4129      C4134   1.411       .  A
C4129      H4136   1.084       .  S
C4130      C4131   1.416       .  A
C4131      C4132   1.425       .  A
C4131      N4138   1.436       .  S
C4132      C4133   1.415       .  A
C4132      H4137   1.083       .  S
C4133      C4134   1.417       .  A
C4134      N4135   1.432       .  S
N4135      H4139   1.045       .  S
N4135      H4140   1.046       .  S
N4138      H4141   1.045       .  S
N4138      H4142   1.046       .  S
C4143      C4144   1.396       .  A
C4143      C4148   1.388       .  A
C4143      H4150   1.084       .  S
C4144      C4145   1.408       .  A
C4145      C4146   1.391       .  A
C4145      N4152   1.429   1_455  S
C4146      C4147   1.392       .  A
C4146      H4151   1.085       .  S
C4147      C4148   1.405       .  A
C4148      N4149   1.434       .  S
N4149      H4153   1.046       .  S
N4149      H4154   1.046       .  S
N4152      H4155   1.045       .  S
N4152      H4156   1.045       .  S
C4157      C4158   1.408       .  A
C4157      C4162   1.423       .  A
C4157      H4164   1.083       .  S
C4158      C4159   1.424       .  A
C4159      C4160   1.407       .  A
C4159      N4166   1.432       .  S
C4160      C4161   1.405       .  A
C4160      H4165   1.084       .  S
C4161      C4162   1.425       .  A
C4162      N4163   1.437       .  S
N4163      H4167   1.046       .  S
N4163      H4168   1.045       .  S
N4166      H4169   1.044       .  S
N4166      H4170   1.044       .  S
C4171      C4172   1.419       .  A
C4171      C4176   1.426       .  A
C4171      H4178   1.083       .  S
C4172      C4173   1.409       .  A
C4173      C4174   1.405       .  A
C4173      N4180   1.433       .  S
C4174      C4175   1.416       .  A
C4174      H4179   1.082       .  S
C4175      C4176   1.413       .  A
C4176      N4177   1.436       .  S
N4177      H4181   1.045       .  S
N4177      H4182   1.046       .  S
N4180      H4183   1.046       .  S
N4180      H4184   1.046       .  S
C4185      C4186   1.416       .  A
C4185      C4190   1.407       .  A
C4185      H4192   1.083       .  S
C4186      C4187   1.420       .  A
C4187      C4188   1.420       .  A
C4187      N4194   1.431       .  S
C4188      C4189   1.418       .  A
C4188      H4193   1.083       .  S
C4189      C4190   1.420       .  A
C4190      N4191   1.432       .  S
N4191      H4195   1.045       .  S
N4191      H4196   1.045       .  S
N4194      H4197   1.045       .  S
N4194      H4198   1.045       .  S
C4199      C4200   1.402       .  A
C4199      C4204   1.387       .  A
C4199      H4206   1.085       .  S
C4200      C4201   1.405       .  A
C4201      C4202   1.400       .  A
C4201      N4208   1.437       .  S
C4202      C4203   1.403       .  A
C4202      H4207   1.084       .  S
C4203      C4204   1.396       .  A
C4204      N4205   1.432       .  S
N4205      H4209   1.044       .  S
N4205      H4210   1.046       .  S
N4208      H4211   1.045       .  S
N4208      H4212   1.046       .  S
C4213      C4214   1.422       .  A
C4213      C4218   1.406       .  A
C4213      H4220   1.082       .  S
C4214      C4215   1.407       .  A
C4215      C4216   1.417       .  A
C4215      N4222   1.431       .  S
C4216      C4217   1.419       .  A
C4216      H4221   1.084       .  S
C4217      C4218   1.408       .  A
C4218      N4219   1.432       .  S
N4219      H4223   1.045       .  S
N4219      H4224   1.046       .  S
N4222      H4225   1.046       .  S
N4222      H4226   1.045       .  S
C4227      C4228   1.393       .  A
C4227      C4232   1.387       .  A
C4227      H4234   1.085       .  S
C4228      C4229   1.410       .  A
C4229      C4230   1.401       .  A
C4229      N4236   1.433       .  S
C4230      C4231   1.398       .  A
C4230      H4235   1.084       .  S
C4231      C4232   1.406       .  A
C4232      N4233   1.430       .  S
N4233      H4237   1.046       .  S
N4233      H4238   1.046       .  S
N4236      H4239   1.046       .  S
N4236      H4240   1.045       .  S
C4241      C4242   1.401       .  A
C4241      C4246   1.387       .  A
C4241      H4248   1.085       .  S
C4242      C4243   1.403       .  A
C4243      C4244   1.391       .  A
C4243      N4250   1.433       .  S
C4244      C4245   1.405       .  A
C4244      H4249   1.081       .  S
C4245      C4246   1.409       .  A
C4246      N4247   1.434       .  S
N4247      H4251   1.044       .  S
N4247      H4252   1.046       .  S
N4250      H4253   1.046       .  S
N4250      H4254   1.045       .  S
C4255      C4256   1.418       .  A
C4255      C4260   1.418       .  A
C4255      H4262   1.083       .  S
C4256      C4257   1.410       .  A
C4257      C4258   1.412       .  A
C4257      N4264   1.431       .  S
C4258      C4259   1.409       .  A
C4258      H4263   1.083       .  S
C4259      C4260   1.408       .  A
C4260      N4261   1.437       .  S
N4261      H4265   1.046       .  S
N4261      H4266   1.046       .  S
N4264      H4267   1.046       .  S
N4264      H4268   1.046       .  S
C4269      C4270   1.415       .  A
C4269      C4274   1.408       .  A
C4269      H4276   1.083       .  S
C4270      C4271   1.419       .  A
C4271      C4272   1.419       .  A
C4271      N4278   1.431       .  S
C4272      C4273   1.417       .  A
C4272      H4277   1.083       .  S
C4273      C4274   1.421       .  A
C4274      N4275   1.433       .  S
N4275      H4279   1.045       .  S
N4275      H4280   1.045       .  S
N4278      H4281   1.045       .  S
N4278      H4282   1.046       .  S
C4283      C4284   1.409       .  A
C4283      C4288   1.400       .  A
C4283      H4290   1.078       .  S
C4284      C4285   1.414       .  A
C4285      C4286   1.421       .  A
C4285      N4292   1.431       .  S
C4286      C4287   1.420       .  A
C4286      H4291   1.083       .  S
C4287      C4288   1.410       .  A
C4288      N4289   1.433       .  S
N4289      H4293   1.046       .  S
N4289      H4294   1.046       .  S
N4292      H4295   1.045       .  S
N4292      H4296   1.045       .  S
C4297      C4298   1.403       .  A
C4297      C4302   1.418       .  A
C4297      H4304   1.083       .  S
C4298      C4299   1.429       .  A
C4299      C4300   1.414       .  A
C4299      N4306   1.433       .  S
C4300      C4301   1.400       .  A
C4300      H4305   1.084       .  S
C4301      C4302   1.427       .  A
C4302      N4303   1.432       .  S
N4303      H4307   1.046       .  S
N4303      H4308   1.046       .  S
N4306      H4309   1.046       .  S
N4306      H4310   1.046       .  S
C4311      C4312   1.404       .  A
C4311      C4316   1.384       .  A
C4311      H4318   1.085       .  S
C4312      C4313   1.403       .  A
C4313      C4314   1.407       .  A
C4313      N4320   1.437       .  S
C4314      C4315   1.407       .  A
C4314      H4319   1.083       .  S
C4315      C4316   1.400       .  A
C4316      N4317   1.433       .  S
N4317      H4321   1.046       .  S
N4317      H4322   1.045       .  S
N4320      H4323   1.046       .  S
N4320      H4324   1.046       .  S
C4325      C4326   1.416       .  A
C4325      C4330   1.399       .  A
C4325      H4332   1.083       .  S
C4326      C4327   1.409       .  A
C4327      C4328   1.423       .  A
C4327      N4334   1.430       .  S
C4328      C4329   1.419       .  A
C4328      H4333   1.083       .  S
C4329      C4330   1.408       .  A
C4330      N4331   1.434       .  S
N4331      H4335   1.046       .  S
N4331      H4336   1.046       .  S
N4334      H4337   1.046       .  S
N4334      H4338   1.045       .  S
C4339      C4340   1.406       .  A
C4339      C4344   1.418       .  A
C4339      H4346   1.083       .  S
C4340      C4341   1.438       .  A
C4341      C4342   1.403       .  A
C4341      N4348   1.432       .  S
C4342      C4343   1.397       .  A
C4342      H4347   1.084       .  S
C4343      C4344   1.432       .  A
C4344      N4345   1.431       .  S
N4345      H4349   1.045       .  S
N4345      H4350   1.041       .  S
N4348      H4351   1.045       .  S
N4348      H4352   1.039       .  S
C4353      C4354   1.403       .  A
C4353      C4358   1.412       .  A
C4353      H4360   1.084       .  S
C4354      C4355   1.424       .  A
C4355      C4356   1.424       .  A
C4355      N4362   1.431       .  S
C4356      C4357   1.408       .  A
C4356      H4361   1.083       .  S
C4357      C4358   1.427       .  A
C4358      N4359   1.433       .  S
N4359      H4363   1.046       .  S
N4359      H4364   1.046       .  S
N4362      H4365   1.046       .  S
N4362      H4366   1.046       .  S
C4367      C4368   1.405       .  A
C4367      C4372   1.418       .  A
C4367      H4374   1.083       .  S
C4368      C4369   1.427       .  A
C4369      C4370   1.408       .  A
C4369      N4376   1.433       .  S
C4370      C4371   1.399       .  A
C4370      H4375   1.084       .  S
C4371      C4372   1.422       .  A
C4372      N4373   1.432       .  S
N4373      H4377   1.046       .  S
N4373      H4378   1.046       .  S
N4376      H4379   1.046       .  S
N4376      H4380   1.046       .  S
C4381      C4382   1.397       .  A
C4381      C4386   1.388       .  A
C4381      H4388   1.085       .  S
C4382      C4383   1.409       .  A
C4383      C4384   1.396       .  A
C4383      N4390   1.432       .  S
C4384      C4385   1.395       .  A
C4384      H4389   1.084       .  S
C4385      C4386   1.404       .  A
C4386      N4387   1.433       .  S
N4387      H4391   1.046       .  S
N4387      H4392   1.045       .  S
N4390      H4393   1.046       .  S
N4390      H4394   1.045       .  S
C4395      C4396   1.403       .  A
C4395      C4400   1.402       .  A
C4395      H4402   1.084       .  S
C4396      C4397   1.396       .  A
C4397      C4398   1.390       .  A
C4397      N4404   1.436       .  S
C4398      C4399   1.405       .  A
C4398      H4403   1.085       .  S
C4399      C4400   1.403       .  A
C4400      N4401   1.436       .  S
N4401      H4405   1.046       .  S
N4401      H4406   1.045       .  S
N4404      H4407   1.046       .  S
N4404      H4408   1.045       .  S
C4409      C4410   1.404       .  A
C4409      C4414   1.424       .  A
C4409      H4416   1.083       .  S
C4410      C4411   1.429       .  A
C4411      C4412   1.423       .  A
C4411      N4418   1.433       .  S
C4412      C4413   1.406       .  A
C4412      H4417   1.083       .  S
C4413      C4414   1.431       .  A
C4414      N4415   1.438       .  S
N4415      H4419   1.046       .  S
N4415      H4420   1.045       .  S
N4418      H4421   1.046       .  S
N4418      H4422   1.046       .  S
C4423      C4424   1.413       .  A
C4423      C4428   1.417       .  A
C4423      H4430   1.083       .  S
C4424      C4425   1.422       .  A
C4425      C4426   1.413       .  A
C4425      N4432   1.432       .  S
C4426      C4427   1.412       .  A
C4426      H4431   1.084       .  S
C4427      C4428   1.415       .  A
C4428      N4429   1.437       .  S
N4429      H4433   1.046       .  S
N4429      H4434   1.046       .  S
N4432      H4435   1.045       .  S
N4432      H4436   1.045       .  S
C4437      C4438   1.409       .  A
C4437      C4442   1.401       .  A
C4437      H4444   1.084       .  S
C4438      C4439   1.398       .  A
C4439      C4440   1.389       .  A
C4439      N4446   1.433       .  S
C4440      C4441   1.402       .  A
C4440      H4445   1.081       .  S
C4441      C4442   1.401       .  A
C4442      N4443   1.438       .  S
N4443      H4447   1.045       .  S
N4443      H4448   1.046       .  S
N4446      H4449   1.046       .  S
N4446      H4450   1.046       .  S
C4451      C4452   1.398       .  A
C4451      C4456   1.384       .  A
C4451      H4458   1.084       .  S
C4452      C4453   1.411       .  A
C4453      C4454   1.396       .  A
C4453      N4460   1.432       .  S
C4454      C4455   1.397       .  A
C4454      H4459   1.084       .  S
C4455      C4456   1.405       .  A
C4456      N4457   1.434       .  S
N4457      H4461   1.045       .  S
N4457      H4462   1.045       .  S
N4460      H4463   1.045       .  S
N4460      H4464   1.045       .  S
C4465      C4466   1.405       .  A
C4465      C4470   1.409       .  A
C4465      H4472   1.084       .  S
C4466      C4467   1.421       .  A
C4467      C4468   1.424       .  A
C4467      N4474   1.436       .  S
C4468      C4469   1.409       .  A
C4468      H4473   1.083       .  S
C4469      C4470   1.425       .  A
C4470      N4471   1.434       .  S
N4471      H4475   1.046       .  S
N4471      H4476   1.046       .  S
N4474      H4477   1.046       .  S
N4474      H4478   1.045       .  S
C4479      C4480   1.421       .  A
C4479      C4484   1.409       .  A
C4479      H4486   1.083       .  S
C4480      C4481   1.415       .  A
C4481      C4482   1.430       .  A
C4481      N4488   1.436       .  S
C4482      C4483   1.424       .  A
C4482      H4487   1.083       .  S
C4483      C4484   1.415       .  A
C4484      N4485   1.432       .  S
N4485      H4489   1.045       .  S
N4485      H4490   1.045       .  S
N4488      H4491   1.045       .  S
N4488      H4492   1.045       .  S
C4493      C4494   1.398       .  A
C4493      C4498   1.387       .  A
C4493      H4500   1.085       .  S
C4494      C4495   1.409       .  A
C4495      C4496   1.393       .  A
C4495      N4502   1.429   1_565  S
C4496      C4497   1.393       .  A
C4496      H4501   1.084       .  S
C4497      C4498   1.406       .  A
C4498      N4499   1.434       .  S
N4499      H4503   1.046       .  S
N4499      H4504   1.045       .  S
N4502      H4505   1.046       .  S
N4502      H4506   1.045       .  S
C4507      C4508   1.391       .  A
C4507      C4512   1.391       .  A
C4507      H4514   1.085       .  S
C4508      C4509   1.408       .  A
C4509      C4510   1.404       .  A
C4509      N4516   1.436       .  S
C4510      C4511   1.398       .  A
C4510      H4515   1.084       .  S
C4511      C4512   1.410       .  A
C4512      N4513   1.431       .  S
N4513      H4517   1.045       .  S
N4513      H4518   1.044       .  S
N4516      H4519   1.046       .  S
N4516      H4520   1.046       .  S
C4521      C4522   1.416       .  A
C4521      C4526   1.422       .  A
C4521      H4528   1.083       .  S
C4522      C4523   1.415       .  A
C4523      C4524   1.416       .  A
C4523      N4530   1.432       .  S
C4524      C4525   1.413       .  A
C4524      H4529   1.084       .  S
C4525      C4526   1.415       .  A
C4526      N4527   1.437       .  S
N4527      H4531   1.045       .  S
N4527      H4532   1.046       .  S
N4530      H4533   1.046       .  S
N4530      H4534   1.046       .  S
C4535      C4536   1.417       .  A
C4535      C4540   1.414       .  A
C4535      H4542   1.084       .  S
C4536      C4537   1.417       .  A
C4537      C4538   1.415       .  A
C4537      N4544   1.430       .  S
C4538      C4539   1.418       .  A
C4538      H4543   1.083       .  S
C4539      C4540   1.419       .  A
C4540      N4541   1.431       .  S
N4541      H4545   1.045       .  S
N4541      H4546   1.045       .  S
N4544      H4547   1.042       .  S
N4544      H4548   1.045       .  S
C4549      C4550   1.398       .  A
C4549      C4554   1.385       .  A
C4549      H4556   1.085       .  S
C4550      C4551   1.418       .  A
C4551      C4552   1.395       .  A
C4551      N4558   1.433       .  S
C4552      C4553   1.398       .  A
C4552      H4557   1.084       .  S
C4553      C4554   1.410       .  A
C4554      N4555   1.439       .  S
N4555      H4559   1.045       .  S
N4555      H4560   1.044       .  S
N4558      H4561   1.045       .  S
N4558      H4562   1.042       .  S
C4563      C4564   1.402       .  A
C4563      C4568   1.384       .  A
C4563      H4570   1.082   1_455  S
C4564      C4565   1.401       .  A
C4565      C4566   1.399       .  A
C4565      N4572   1.438       .  S
C4566      C4567   1.409       .  A
C4566      H4571   1.083       .  S
C4567      C4568   1.399       .  A
C4568      N4569   1.434       .  S
N4569      H4573   1.046   1_455  S
N4569      H4574   1.046   1_455  S
N4572      H4575   1.046       .  S
N4572      H4576   1.046       .  S
C4577      C4578   1.401       .  A
C4577      C4582   1.416       .  A
C4577      H4584   1.084       .  S
C4578      C4579   1.426       .  A
C4579      C4580   1.420       .  A
C4579      N4586   1.438       .  S
C4580      C4581   1.405       .  A
C4580      H4585   1.083       .  S
C4581      C4582   1.429       .  A
C4582      N4583   1.433       .  S
N4583      H4587   1.046       .  S
N4583      H4588   1.046       .  S
N4586      H4589   1.046       .  S
N4586      H4590   1.046       .  S
C4591      C4592   1.416       .  A
C4591      C4596   1.417       .  A
C4591      H4598   1.083       .  S
C4592      C4593   1.414       .  A
C4593      C4594   1.416       .  A
C4593      N4600   1.432       .  S
C4594      C4595   1.413       .  A
C4594      H4599   1.084       .  S
C4595      C4596   1.419       .  A
C4596      N4597   1.432       .  S
N4597      H4601   1.045       .  S
N4597      H4602   1.045       .  S
N4600      H4603   1.046       .  S
N4600      H4604   1.046       .  S
C4605      C4606   1.390       .  A
C4605      C4610   1.388       .  A
C4605      H4612   1.085       .  S
C4606      C4607   1.409       .  A
C4607      C4608   1.395       .  A
C4607      N4614   1.433       .  S
C4608      C4609   1.397       .  A
C4608      H4613   1.084       .  S
C4609      C4610   1.408       .  A
C4610      N4611   1.428       .  S
N4611      H4615   1.044       .  S
N4611      H4616   1.044       .  S
N4614      H4617   1.046       .  S
N4614      H4618   1.043       .  S
C4619      C4620   1.397       .  A
C4619      C4624   1.392       .  A
C4619      H4626   1.085       .  S
C4620      C4621   1.409       .  A
C4621      C4622   1.382       .  A
C4621      N4628   1.431   1_455  S
C4622      C4623   1.396       .  A
C4622      H4627   1.085       .  S
C4623      C4624   1.407       .  A
C4624      N4625   1.433       .  S
N4625      H4629   1.045       .  S
N4625      H4630   1.044       .  S
N4628      H4631   1.045       .  S
N4628      H4632   1.042       .  S
C4633      C4634   1.400       .  A
C4633      C4638   1.415       .  A
C4633      H4640   1.084       .  S
C4634      C4635   1.423       .  A
C4635      C4636   1.420       .  A
C4635      N4642   1.432       .  S
C4636      C4637   1.406       .  A
C4636      H4641   1.083       .  S
C4637      C4638   1.430       .  A
C4638      N4639   1.433       .  S
N4639      H4643   1.046       .  S
N4639      H4644   1.046       .  S
N4642      H4645   1.046       .  S
N4642      H4646   1.046       .  S
C4647      C4648   1.404       .  A
C4647      C4652   1.410       .  A
C4647      H4654   1.084       .  S
C4648      C4649   1.422       .  A
C4649      C4650   1.423       .  A
C4649      N4656   1.432       .  S
C4650      C4651   1.410       .  A
C4650      H4655   1.083       .  S
C4651      C4652   1.426       .  A
C4652      N4653   1.433       .  S
N4653      H4657   1.046       .  S
N4653      H4658   1.046       .  S
N4656      H4659   1.046       .  S
N4656      H4660   1.045       .  S
C4661      C4662   1.395       .  A
C4661      C4666   1.392       .  A
C4661      H4668   1.085       .  S
C4662      C4663   1.410       .  A
C4663      C4664   1.392       .  A
C4663      N4670   1.437       .  S
C4664      C4665   1.399       .  A
C4664      H4669   1.084       .  S
C4665      C4666   1.409       .  A
C4666      N4667   1.432       .  S
N4667      H4671   1.046       .  S
N4667      H4672   1.045       .  S
N4670      H4673   1.045       .  S
N4670      H4674   1.045       .  S
C4675      C4676   1.398       .  A
C4675      C4680   1.387       .  A
C4675      H4682   1.084       .  S
C4676      C4677   1.405       .  A
C4677      C4678   1.394       .  A
C4677      N4684   1.433       .  S
C4678      C4679   1.404       .  A
C4678      H4683   1.084       .  S
C4679      C4680   1.403       .  A
C4680      N4681   1.434       .  S
N4681      H4685   1.046       .  S
N4681      H4686   1.046       .  S
N4684      H4687   1.045       .  S
N4684      H4688   1.046       .  S
C4689      C4690   1.415       .  A
C4689      C4694   1.416       .  A
C4689      H4696   1.083       .  S
C4690      C4691   1.422       .  A
C4691      C4692   1.414       .  A
C4691      N4698   1.432       .  S
C4692      C4693   1.412       .  A
C4692      H4697   1.084       .  S
C4693      C4694   1.411       .  A
C4694      N4695   1.432       .  S
N4695      H4699   1.046       .  S
N4695      H4700   1.046       .  S
N4698      H4701   1.045       .  S
N4698      H4702   1.045       .  S
C4703      C4704   1.416       .  A
C4703      C4708   1.411       .  A
C4703      H4710   1.084       .  S
C4704      C4705   1.411       .  A
C4705      C4706   1.418       .  A
C4705      N4712   1.431       .  S
C4706      C4707   1.415       .  A
C4706      H4711   1.084       .  S
C4707      C4708   1.416       .  A
C4708      N4709   1.432       .  S
N4709      H4713   1.044       .  S
N4709      H4714   1.046       .  S
N4712      H4715   1.045       .  S
N4712      H4716   1.046       .  S
C4717      C4718   1.396       .  A
C4717      C4722   1.384       .  A
C4717      H4724   1.085       .  S
C4718      C4719   1.412       .  A
C4719      C4720   1.395       .  A
C4719      N4726   1.433       .  S
C4720      C4721   1.395       .  A
C4720      H4725   1.084       .  S
C4721      C4722   1.406       .  A
C4722      N4723   1.433       .  S
N4723      H4727   1.046       .  S
N4723      H4728   1.045       .  S
N4726      H4729   1.046       .  S
N4726      H4730   1.045       .  S
C4731      C4732   1.405       .  A
C4731      C4736   1.410       .  A
C4731      H4738   1.084       .  S
C4732      C4733   1.401       .  A
C4733      C4734   1.381       .  A
C4733      N4740   1.433       .  S
C4734      C4735   1.402       .  A
C4734      H4739   1.085       .  S
C4735      C4736   1.410       .  A
C4736      N4737   1.436       .  S
N4737      H4741   1.046       .  S
N4737      H4742   1.045       .  S
N4740      H4743   1.046       .  S
N4740      H4744   1.042       .  S
C4745      C4746   1.406       .  A
C4745      C4750   1.419       .  A
C4745      H4752   1.083       .  S
C4746      C4747   1.428       .  A
C4747      C4748   1.420       .  A
C4747      N4754   1.438       .  S
C4748      C4749   1.404       .  A
C4748      H4753   1.083       .  S
C4749      C4750   1.422       .  A
C4750      N4751   1.432       .  S
N4751      H4755   1.045       .  S
N4751      H4756   1.046       .  S
N4754      H4757   1.046       .  S
N4754      H4758   1.046       .  S
C4759      C4760   1.417       .  A
C4759      C4764   1.416       .  A
C4759      H4766   1.083       .  S
C4760      C4761   1.419       .  A
C4761      C4762   1.404       .  A
C4761      N4768   1.433       .  S
C4762      C4763   1.414       .  A
C4762      H4767   1.083       .  S
C4763      C4764   1.418       .  A
C4764      N4765   1.431       .  S
N4765      H4769   1.045       .  S
N4765      H4770   1.045       .  S
N4768      H4771   1.045       .  S
N4768      H4772   1.045       .  S
C4773      C4774   1.405       .  A
C4773      C4778   1.389       .  A
C4773      H4780   1.085       .  S
C4774      C4775   1.404       .  A
C4775      C4776   1.406       .  A
C4775      N4782   1.436       .  S
C4776      C4777   1.407       .  A
C4776      H4781   1.084       .  S
C4777      C4778   1.397       .  A
C4778      N4779   1.433       .  S
N4779      H4783   1.046       .  S
N4779      H4784   1.046       .  S
N4782      H4785   1.045       .  S
N4782      H4786   1.046       .  S
C4787      C4788   1.403       .  A
C4787      C4792   1.395       .  A
C4787      H4794   1.085   1_554  S
C4788      C4789   1.406       .  A
C4789      C4790   1.388       .  A
C4789      N4796   1.434       .  S
C4790      C4791   1.403       .  A
C4790      H4795   1.085       .  S
C4791      C4792   1.409       .  A
C4792      N4793   1.438       .  S
N4793      H4797   1.046       .  S
N4793      H4798   1.044       .  S
N4796      H4799   1.046       .  S
N4796      H4800   1.044       .  S
C4801      C4802   1.416       .  A
C4801      C4806   1.418       .  A
C4801      H4808   1.083       .  S
C4802      C4803   1.417       .  A
C4803      C4804   1.424       .  A
C4803      N4810   1.437       .  S
C4804      C4805   1.416       .  A
C4804      H4809   1.083       .  S
C4805      C4806   1.420       .  A
C4806      N4807   1.432       .  S
N4807      H4811   1.045       .  S
N4807      H4812   1.045       .  S
N4810      H4813   1.046       .  S
N4810      H4814   1.046       .  S
C4815      C4816   1.416       .  A
C4815      C4820   1.424       .  A
C4815      H4822   1.083       .  S
C4816      C4817   1.407       .  A
C4817      C4818   1.408       .  A
C4817      N4824   1.432       .  S
C4818      C4819   1.415       .  A
C4818      H4823   1.084       .  S
C4819      C4820   1.414       .  A
C4820      N4821   1.436       .  S
N4821      H4825   1.046       .  S
N4821      H4826   1.045       .  S
N4824      H4827   1.046       .  S
N4824      H4828   1.046       .  S
C4829      C4830   1.398       .  A
C4829      C4834   1.387       .  A
C4829      H4836   1.085       .  S
C4830      C4831   1.402       .  A
C4831      C4832   1.397       .  A
C4831      N4838   1.438       .  S
C4832      C4833   1.405       .  A
C4832      H4837   1.083       .  S
C4833      C4834   1.410       .  A
C4834      N4835   1.439       .  S
N4835      H4839   1.046       .  S
N4835      H4840   1.046       .  S
N4838      H4841   1.046       .  S
N4838      H4842   1.046       .  S
C4843      C4844   1.400       .  A
C4843      C4848   1.386       .  A
C4843      H4850   1.084       .  S
C4844      C4845   1.402       .  A
C4845      C4846   1.392       .  A
C4845      N4852   1.431       .  S
C4846      C4847   1.407       .  A
C4846      H4851   1.084       .  S
C4847      C4848   1.400       .  A
C4848      N4849   1.433       .  S
N4849      H4853   1.046       .  S
N4849      H4854   1.046       .  S
N4852      H4855   1.043       .  S
N4852      H4856   1.045       .  S
C4857      C4858   1.400       .  A
C4857      C4862   1.416       .  A
C4857      H4864   1.084       .  S
C4858      C4859   1.427       .  A
C4859      C4860   1.420       .  A
C4859      N4866   1.432       .  S
C4860      C4861   1.404       .  A
C4860      H4865   1.083       .  S
C4861      C4862   1.433       .  A
C4862      N4863   1.433       .  S
N4863      H4867   1.046       .  S
N4863      H4868   1.045       .  S
N4866      H4869   1.046       .  S
N4866      H4870   1.045       .  S
C4871      C4872   1.413       .  A
C4871      C4876   1.414       .  A
C4871      H4878   1.083       .  S
C4872      C4873   1.413       .  A
C4873      C4874   1.409       .  A
C4873      N4880   1.433       .  S
C4874      C4875   1.413       .  A
C4874      H4879   1.084       .  S
C4875      C4876   1.421       .  A
C4876      N4877   1.432       .  S
N4877      H4881   1.045       .  S
N4877      H4882   1.045       .  S
N4880      H4883   1.046       .  S
N4880      H4884   1.046       .  S
C4885      C4886   1.389       .  A
C4885      C4890   1.387       .  A
C4885      H4892   1.085       .  S
C4886      C4887   1.405       .  A
C4887      C4888   1.399       .  A
C4887      N4894   1.436       .  S
C4888      C4889   1.397       .  A
C4888      H4893   1.084       .  S
C4889      C4890   1.418       .  A
C4890      N4891   1.437       .  S
N4891      H4895   1.045       .  S
N4891      H4896   1.040       .  S
N4894      H4897   1.045       .  S
N4894      H4898   1.046       .  S
C4899      C4900   1.398       .  A
C4899      C4904   1.386       .  A
C4899      H4906   1.084       .  S
C4900      C4901   1.408       .  A
C4901      C4902   1.388       .  A
C4901      N4908   1.430   1_455  S
C4902      C4903   1.392       .  A
C4902      H4907   1.085       .  S
C4903      C4904   1.403       .  A
C4904      N4905   1.434       .  S
N4905      H4909   1.046       .  S
N4905      H4910   1.046       .  S
N4908      H4911   1.046       .  S
N4908      H4912   1.045       .  S
C4913      C4914   1.407       .  A
C4913      C4918   1.420       .  A
C4913      H4920   1.084       .  S
C4914      C4915   1.422       .  A
C4915      C4916   1.415       .  A
C4915      N4922   1.433       .  S
C4916      C4917   1.403       .  A
C4916      H4921   1.084       .  S
C4917      C4918   1.422       .  A
C4918      N4919   1.432       .  S
N4919      H4923   1.046       .  S
N4919      H4924   1.045       .  S
N4922      H4925   1.046       .  S
N4922      H4926   1.046       .  S
C4927      C4928   1.418       .  A
C4927      C4932   1.424       .  A
C4927      H4934   1.083       .  S
C4928      C4929   1.411       .  A
C4929      C4930   1.406       .  A
C4929      N4936   1.433       .  S
C4930      C4931   1.416       .  A
C4930      H4935   1.083       .  S
C4931      C4932   1.412       .  A
C4932      N4933   1.430       .  S
N4933      H4937   1.046       .  S
N4933      H4938   1.046       .  S
N4936      H4939   1.046       .  S
N4936      H4940   1.046       .  S
C4941      C4942   1.401       .  A
C4941      C4946   1.391       .  A
C4941      H4948   1.080       .  S
C4942      C4943   1.398       .  A
C4943      C4944   1.398       .  A
C4943      N4950   1.432       .  S
C4944      C4945   1.408       .  A
C4944      H4949   1.084       .  S
C4945      C4946   1.399       .  A
C4946      N4947   1.438       .  S
N4947      H4951   1.046       .  S
N4947      H4952   1.046       .  S
N4950      H4953   1.044       .  S
N4950      H4954   1.045       .  S
C4955      C4956   1.405       .  A
C4955      C4960   1.389       .  A
C4955      H4962   1.081   1_455  S
C4956      C4957   1.401       .  A
C4957      C4958   1.390       .  A
C4957      N4964   1.432       .  S
C4958      C4959   1.402       .  A
C4958      H4963   1.085       .  S
C4959      C4960   1.402       .  A
C4960      N4961   1.433       .  S
N4961      H4965   1.046       .  S
N4961      H4966   1.045       .  S
N4964      H4967   1.046       .  S
N4964      H4968   1.046       .  S
C4969      C4970   1.419       .  A
C4969      C4974   1.416       .  A
C4969      H4976   1.083       .  S
C4970      C4971   1.409       .  A
C4971      C4972   1.417       .  A
C4971      N4978   1.437       .  S
C4972      C4973   1.420       .  A
C4972      H4977   1.083       .  S
C4973      C4974   1.410       .  A
C4974      N4975   1.437       .  S
N4975      H4979   1.046       .  S
N4975      H4980   1.046       .  S
N4978      H4981   1.045       .  S
N4978      H4982   1.046       .  S
C4983      C4984   1.413       .  A
C4983      C4988   1.413       .  A
C4983      H4990   1.084       .  S
C4984      C4985   1.415       .  A
C4985      C4986   1.415       .  A
C4985      N4992   1.432       .  S
C4986      C4987   1.418       .  A
C4986      H4991   1.083       .  S
C4987      C4988   1.420       .  A
C4988      N4989   1.432       .  S
N4989      H4993   1.045       .  S
N4989      H4994   1.045       .  S
N4992      H4995   1.046       .  S
N4992      H4996   1.045       .  S
C4997      C4998   1.397       .  A
C4997      C5002   1.397       .  A
C4997      H5004   1.083       .  S
C4998      C4999   1.412       .  A
C4999      C5000   1.382       .  A
C4999      N5006   1.430   1_565  S
C5000      C5001   1.394       .  A
C5000      H5005   1.085       .  S
C5001      C5002   1.411       .  A
C5002      N5003   1.432       .  S
N5003      H5007   1.046       .  S
N5003      H5008   1.046       .  S
N5006      H5009   1.044       .  S
N5006      H5010   1.043       .  S
C5011      C5012   1.401       .  A
C5011      C5016   1.391       .  A
C5011      H5018   1.084       .  S
C5012      C5013   1.416       .  A
C5013      C5014   1.396       .  A
C5013      N5020   1.436       .  S
C5014      C5015   1.391       .  A
C5014      H5019   1.084       .  S
C5015      C5016   1.404       .  A
C5016      N5017   1.437       .  S
N5017      H5021   1.046       .  S
N5017      H5022   1.045       .  S
N5020      H5023   1.046       .  S
N5020      H5024   1.046       .  S
C5025      C5026   1.416       .  A
C5025      C5030   1.420       .  A
C5025      H5032   1.083       .  S
C5026      C5027   1.412       .  A
C5027      C5028   1.413       .  A
C5027      N5034   1.433       .  S
C5028      C5029   1.417       .  A
C5028      H5033   1.083       .  S
C5029      C5030   1.413       .  A
C5030      N5031   1.431       .  S
N5031      H5035   1.046       .  S
N5031      H5036   1.046       .  S
N5034      H5037   1.046       .  S
N5034      H5038   1.046       .  S
C5039      C5040   1.419       .  A
C5039      C5044   1.410       .  A
C5039      H5046   1.084       .  S
C5040      C5041   1.413       .  A
C5041      C5042   1.410       .  A
C5041      N5048   1.431       .  S
C5042      C5043   1.418       .  A
C5042      H5047   1.084       .  S
C5043      C5044   1.412       .  A
C5044      N5045   1.432       .  S
N5045      H5049   1.045       .  S
N5045      H5050   1.045       .  S
N5048      H5051   1.045       .  S
N5048      H5052   1.044       .  S
C5053      C5054   1.403       .  A
C5053      C5058   1.395       .  A
C5053      H5060   1.084       .  S
C5054      C5055   1.405       .  A
C5055      C5056   1.391       .  A
C5055      N5062   1.433       .  S
C5056      C5057   1.398       .  A
C5056      H5061   1.085       .  S
C5057      C5058   1.402       .  A
C5058      N5059   1.438       .  S
N5059      H5063   1.045       .  S
N5059      H5064   1.046       .  S
N5062      H5065   1.046       .  S
N5062      H5066   1.045       .  S
C5067      C5068   1.403       .  A
C5067      C5072   1.393       .  A
C5067      H5074   1.085       .  S
C5068      C5069   1.399       .  A
C5069      C5070   1.390       .  A
C5069      N5076   1.438       .  S
C5070      C5071   1.400       .  A
C5070      H5075   1.085       .  S
C5071      C5072   1.398       .  A
C5072      N5073   1.438       .  S
N5073      H5077   1.046       .  S
N5073      H5078   1.046       .  S
N5076      H5079   1.046       .  S
N5076      H5080   1.046       .  S
C5081      C5082   1.418       .  A
C5081      C5086   1.408       .  A
C5081      H5088   1.084       .  S
C5082      C5083   1.412       .  A
C5083      C5084   1.424       .  A
C5083      N5090   1.436       .  S
C5084      C5085   1.418       .  A
C5084      H5089   1.083       .  S
C5085      C5086   1.412       .  A
C5086      N5087   1.432       .  S
N5087      H5091   1.045       .  S
N5087      H5092   1.045       .  S
N5090      H5093   1.045       .  S
N5090      H5094   1.046       .  S
C5095      C5096   1.406       .  A
C5095      C5100   1.414       .  A
C5095      H5102   1.084       .  S
C5096      C5097   1.425       .  A
C5097      C5098   1.420       .  A
C5097      N5104   1.432       .  S
C5098      C5099   1.405       .  A
C5098      H5103   1.083       .  S
C5099      C5100   1.430       .  A
C5100      N5101   1.431       .  S
N5101      H5105   1.043       .  S
N5101      H5106   1.044       .  S
N5104      H5107   1.045       .  S
N5104      H5108   1.046       .  S
C5109      C5110   1.392       .  A
C5109      C5114   1.391       .  A
C5109      H5116   1.085       .  S
C5110      C5111   1.405       .  A
C5111      C5112   1.384       .  A
C5111      N5118   1.432       .  S
C5112      C5113   1.393       .  A
C5112      H5117   1.085       .  S
C5113      C5114   1.412       .  A
C5114      N5115   1.433       .  S
N5115      H5119   1.045       .  S
N5115      H5120   1.046       .  S
N5118      H5121   1.045       .  S
N5118      H5122   1.046       .  S
C5123      C5124   1.407       .  A
C5123      C5128   1.392       .  A
C5123      H5130   1.083       .  S
C5124      C5125   1.411       .  A
C5125      C5126   1.392       .  A
C5125      N5132   1.439       .  S
C5126      C5127   1.397       .  A
C5126      H5131   1.083       .  S
C5127      C5128   1.394       .  A
C5128      N5129   1.432       .  S
N5129      H5133   1.045       .  S
N5129      H5134   1.045       .  S
N5132      H5135   1.046       .  S
N5132      H5136   1.046       .  S
C5137      C5138   1.403       .  A
C5137      C5142   1.414       .  A
C5137      H5144   1.083       .  S
C5138      C5139   1.425       .  A
C5139      C5140   1.415       .  A
C5139      N5146   1.433       .  S
C5140      C5141   1.402       .  A
C5140      H5145   1.084       .  S
C5141      C5142   1.422       .  A
C5142      N5143   1.432       .  S
N5143      H5147   1.046       .  S
N5143      H5148   1.046       .  S
N5146      H5149   1.046       .  S
N5146      H5150   1.046       .  S
C5151      C5152   1.415       .  A
C5151      C5156   1.421       .  A
C5151      H5158   1.083       .  S
C5152      C5153   1.415       .  A
C5153      C5154   1.417       .  A
C5153      N5160   1.432       .  S
C5154      C5155   1.412       .  A
C5154      H5159   1.083       .  S
C5155      C5156   1.415       .  A
C5156      N5157   1.432       .  S
N5157      H5161   1.046       .  S
N5157      H5162   1.045       .  S
N5160      H5163   1.045       .  S
N5160      H5164   1.045       .  S
C5165      C5166   1.407       .  A
C5165      C5170   1.396       .  A
C5165      H5172   1.085       .  S
C5166      C5167   1.401       .  A
C5167      C5168   1.378       .  A
C5167      N5174   1.429       .  S
C5168      C5169   1.401       .  A
C5168      H5173   1.085       .  S
C5169      C5170   1.403       .  A
C5170      N5171   1.432       .  S
N5171      H5175   1.045       .  S
N5171      H5176   1.046       .  S
N5174      H5177   1.045       .  S
N5174      H5178   1.044       .  S
C5179      C5180   1.399       .  A
C5179      C5184   1.398       .  A
C5179      H5186   1.084       .  S
C5180      C5181   1.407       .  A
C5181      C5182   1.392       .  A
C5181      N5188   1.439       .  S
C5182      C5183   1.401       .  A
C5182      H5187   1.084       .  S
C5183      C5184   1.409       .  A
C5184      N5185   1.437       .  S
N5185      H5189   1.046       .  S
N5185      H5190   1.045       .  S
N5188      H5191   1.046       .  S
N5188      H5192   1.046       .  S
C5193      C5194   1.406       .  A
C5193      C5198   1.417       .  A
C5193      H5200   1.084       .  S
C5194      C5195   1.424       .  A
C5195      C5196   1.423       .  A
C5195      N5202   1.432       .  S
C5196      C5197   1.408       .  A
C5196      H5201   1.083       .  S
C5197      C5198   1.426       .  A
C5198      N5199   1.433       .  S
N5199      H5203   1.046       .  S
N5199      H5204   1.046       .  S
N5202      H5205   1.046       .  S
N5202      H5206   1.045       .  S
C5207      C5208   1.408       .  A
C5207      C5212   1.418       .  A
C5207      H5214   1.084       .  S
C5208      C5209   1.423       .  A
C5209      C5210   1.419       .  A
C5209      N5216   1.438       .  S
C5210      C5211   1.405       .  A
C5210      H5215   1.083       .  S
C5211      C5212   1.426       .  A
C5212      N5213   1.431       .  S
N5213      H5217   1.045       .  S
N5213      H5218   1.045       .  S
N5216      H5219   1.046       .  S
N5216      H5220   1.046       .  S
C5221      C5222   1.398       .  A
C5221      C5226   1.388       .  A
C5221      H5228   1.085       .  S
C5222      C5223   1.409       .  A
C5223      C5224   1.390       .  A
C5223      N5230   1.430       .  S
C5224      C5225   1.392       .  A
C5224      H5229   1.084       .  S
C5225      C5226   1.404       .  A
C5226      N5227   1.433       .  S
N5227      H5231   1.045       .  S
N5227      H5232   1.046       .  S
N5230      H5233   1.046       .  S
N5230      H5234   1.046       .  S
C5235      C5236   1.393       .  A
C5235      C5240   1.390       .  A
C5235      H5242   1.085       .  S
C5236      C5237   1.406       .  A
C5237      C5238   1.401       .  A
C5237      N5244   1.436       .  S
C5238      C5239   1.397       .  A
C5238      H5243   1.084       .  S
C5239      C5240   1.406       .  A
C5240      N5241   1.430       .  S
N5241      H5245   1.045       .  S
N5241      H5246   1.046       .  S
N5244      H5247   1.046       .  S
N5244      H5248   1.045       .  S
C5249      C5250   1.404       .  A
C5249      C5254   1.418       .  A
C5249      H5256   1.084       .  S
C5250      C5251   1.427       .  A
C5251      C5252   1.413       .  A
C5251      N5258   1.433       .  S
C5252      C5253   1.399       .  A
C5252      H5257   1.084       .  S
C5253      C5254   1.422       .  A
C5254      N5255   1.432       .  S
N5255      H5259   1.045       .  S
N5255      H5260   1.046       .  S
N5258      H5261   1.046       .  S
N5258      H5262   1.046       .  S
C5263      C5264   1.408       .  A
C5263      C5268   1.419       .  A
C5263      H5270   1.083       .  S
C5264      C5265   1.433       .  A
C5265      C5266   1.405       .  A
C5265      N5272   1.433       .  S
C5266      C5267   1.402       .  A
C5266      H5271   1.084       .  S
C5267      C5268   1.421       .  A
C5268      N5269   1.432       .  S
N5269      H5273   1.046       .  S
N5269      H5274   1.046       .  S
N5272      H5275   1.045       .  S
N5272      H5276   1.045       .  S
C5277      C5278   1.397       .  A
C5277      C5282   1.400       .  A
C5277      H5284   1.084       .  S
C5278      C5279   1.411       .  A
C5279      C5280   1.385       .  A
C5279      N5286   1.432       .  S
C5280      C5281   1.389       .  A
C5280      H5285   1.085       .  S
C5281      C5282   1.407       .  A
C5282      N5283   1.435       .  S
N5283      H5287   1.045       .  S
N5283      H5288   1.045       .  S
N5286      H5289   1.045       .  S
N5286      H5290   1.046       .  S
C5291      C5292   1.395       .  A
C5291      C5296   1.381       .  A
C5291      H5298   1.082       .  S
C5292      C5293   1.396       .  A
C5293      C5294   1.391       .  A
C5293      N5300   1.438       .  S
C5294      C5295   1.408       .  A
C5294      H5299   1.084       .  S
C5295      C5296   1.413       .  A
C5296      N5297   1.435       .  S
N5297      H5301   1.043       .  S
N5297      H5302   1.046       .  S
N5300      H5303   1.046       .  S
N5300      H5304   1.046       .  S
C5305      C5306   1.414       .  A
C5305      C5310   1.419       .  A
C5305      H5312   1.083       .  S
C5306      C5307   1.415       .  A
C5307      C5308   1.418       .  A
C5307      N5314   1.432       .  S
C5308      C5309   1.414       .  A
C5308      H5313   1.084       .  S
C5309      C5310   1.413       .  A
C5310      N5311   1.431       .  S
N5311      H5315   1.046       .  S
N5311      H5316   1.045       .  S
N5314      H5317   1.046       .  S
N5314      H5318   1.046       .  S
C5319      C5320   1.421       .  A
C5319      C5324   1.421       .  A
C5319      H5326   1.083       .  S
C5320      C5321   1.412       .  A
C5321      C5322   1.422       .  A
C5321      N5328   1.431       .  S
C5322      C5323   1.419       .  A
C5322      H5327   1.083       .  S
C5323      C5324   1.410       .  A
C5324      N5325   1.431       .  S
N5325      H5329   1.045       .  S
N5325      H5330   1.046       .  S
N5328      H5331   1.045       .  S
N5328      H5332   1.046       .  S
C5333      C5334   1.398       .  A
C5333      C5338   1.386       .  A
C5333      H5340   1.085       .  S
C5334      C5335   1.412       .  A
C5335      C5336   1.392       .  A
C5335      N5342   1.431       .  S
C5336      C5337   1.397       .  A
C5336      H5341   1.084       .  S
C5337      C5338   1.412       .  A
C5338      N5339   1.434       .  S
N5339      H5343   1.044       .  S
N5339      H5344   1.044       .  S
N5342      H5345   1.045       .  S
N5342      H5346   1.046       .  S
C5347      C5348   1.392       .  A
C5347      C5352   1.390       .  A
C5347      H5354   1.085       .  S
C5348      C5349   1.408       .  A
C5349      C5350   1.402       .  A
C5349      N5356   1.436       .  S
C5350      C5351   1.397       .  A
C5350      H5355   1.084       .  S
C5351      C5352   1.411       .  A
C5352      N5353   1.433       .  S
N5353      H5357   1.046       .  S
N5353      H5358   1.045       .  S
N5356      H5359   1.045       .  S
N5356      H5360   1.046       .  S
C5361      C5362   1.400       .  A
C5361      C5366   1.402       .  A
C5361      H5368   1.084       .  S
C5362      C5363   1.420       .  A
C5363      C5364   1.427       .  A
C5363      N5370   1.436       .  S
C5364      C5365   1.411       .  A
C5364      H5369   1.083       .  S
C5365      C5366   1.422       .  A
C5366      N5367   1.433       .  S
N5367      H5371   1.046       .  S
N5367      H5372   1.045       .  S
N5370      H5373   1.046       .  S
N5370      H5374   1.046       .  S
C5375      C5376   1.416       .  A
C5375      C5380   1.417       .  A
C5375      H5382   1.083       .  S
C5376      C5377   1.412       .  A
C5377      C5378   1.423       .  A
C5377      N5384   1.431       .  S
C5378      C5379   1.416       .  A
C5378      H5383   1.083       .  S
C5379      C5380   1.414       .  A
C5380      N5381   1.438       .  S
N5381      H5385   1.046       .  S
N5381      H5386   1.046       .  S
N5384      H5387   1.045       .  S
N5384      H5388   1.046       .  S
C5389      C5390   1.405       .  A
C5389      C5394   1.388       .  A
C5389      H5396   1.084       .  S
C5390      C5391   1.399       .  A
C5391      C5392   1.386       .  A
C5391      N5398   1.433       .  S
C5392      C5393   1.400       .  A
C5392      H5397   1.085       .  S
C5393      C5394   1.402       .  A
C5394      N5395   1.433       .  S
N5395      H5399   1.045       .  S
N5395      H5400   1.045       .  S
N5398      H5401   1.046       .  S
N5398      H5402   1.046       .  S
C5403      C5404   1.405       .  A
C5403      C5408   1.402       .  A
C5403      H5410   1.084       .  S
C5404      C5405   1.399       .  A
C5405      C5406   1.389       .  A
C5405      N5412   1.433       .  S
C5406      C5407   1.400       .  A
C5406      H5411   1.083       .  S
C5407      C5408   1.402       .  A
C5408      N5409   1.437       .  S
N5409      H5413   1.046       .  S
N5409      H5414   1.046       .  S
N5412      H5415   1.046       .  S
N5412      H5416   1.044       .  S
C5417      C5418   1.402       .  A
C5417      C5422   1.413       .  A
C5417      H5424   1.084       .  S
C5418      C5419   1.424       .  A
C5419      C5420   1.420       .  A
C5419      N5426   1.437       .  S
C5420      C5421   1.406       .  A
C5420      H5425   1.083       .  S
C5421      C5422   1.435       .  A
C5422      N5423   1.433       .  S
N5423      H5427   1.045       .  S
N5423      H5428   1.045       .  S
N5426      H5429   1.045       .  S
N5426      H5430   1.046       .  S
C5431      C5432   1.404       .  A
C5431      C5436   1.407       .  A
C5431      H5438   1.084       .  S
C5432      C5433   1.419       .  A
C5433      C5434   1.426       .  A
C5433      N5440   1.431       .  S
C5434      C5435   1.412       .  A
C5434      H5439   1.083       .  S
C5435      C5436   1.433       .  A
C5436      N5437   1.434       .  S
N5437      H5441   1.044       .  S
N5437      H5442   1.045       .  S
N5440      H5443   1.046       .  S
N5440      H5444   1.045       .  S
C5445      C5446   1.403       .  A
C5445      C5450   1.397       .  A
C5445      H5452   1.084       .  S
C5446      C5447   1.401       .  A
C5447      C5448   1.386       .  A
C5447      N5454   1.431       .  S
C5448      C5449   1.404       .  A
C5448      H5453   1.085       .  S
C5449      C5450   1.408       .  A
C5450      N5451   1.432       .  S
N5451      H5455   1.046       .  S
N5451      H5456   1.045       .  S
N5454      H5457   1.043       .  S
N5454      H5458   1.046       .  S
C5459      C5460   1.400       .  A
C5459      C5464   1.395       .  A
C5459      H5466   1.085       .  S
C5460      C5461   1.399       .  A
C5461      C5462   1.388       .  A
C5461      N5468   1.434       .  S
C5462      C5463   1.401       .  A
C5462      H5467   1.085       .  S
C5463      C5464   1.406       .  A
C5464      N5465   1.438       .  S
N5465      H5469   1.046       .  S
N5465      H5470   1.045       .  S
N5468      H5471   1.046       .  S
N5468      H5472   1.046       .  S
