geometry optimzed in LAMMPS
_audit_creation_date              2020-11-30 
_audit_creation_method            'lammps2cif' 
_symmetry_space_group_name_H-M    'P1' 
_symmetry_Int_Tables_number       1 
_symmetry_cell_setting            triclinic 
loop_ 
_symmetry_equiv_pos_as_xyz 
  x,y,z 
_cell_length_a                    40.29394991 
_cell_length_b                    40.28117561688189 
_cell_length_c                    27.377385241691734 
_cell_angle_alpha                 90.13748520674054 
_cell_angle_beta                  90.07149174318018 
_cell_angle_gamma                 90.08433608876814 
loop_ 
_atom_site_label 
_atom_site_type_symbol 
_atom_site_fract_x 
_atom_site_fract_y 
_atom_site_fract_z 
_atom_site_charge 
C1          C  0.41841899  0.17561961  0.95030579     0.31800
C2          C  0.41394654  0.17168603  0.04732837     0.31800
C3          C  0.42713560  0.14118578  0.97110589    -0.04400
C4          C  0.44205898  0.19878580  0.97785949    -0.05200
C5          C  0.38425931  0.18521677  0.97083480    -0.05100
C6          C  0.42499471  0.13913414  0.02237069    -0.04400
C7          C  0.43955148  0.19674249  0.02928208    -0.05200
C8          C  0.38191575  0.18321524  0.02201858    -0.05100
C9          C  0.45174954  0.11947981  0.03703599    -0.30500
N10         N  0.46962201  0.10944589  0.99779996     0.16000
C11         C  0.45476784  0.12243746  0.95780257    -0.30500
H12         H  0.46635462  0.12315609  0.92214780     0.18000
C13         C  0.47080011  0.20200344  0.04769985    -0.29400
N14         N  0.49149251  0.20721712  0.01016336     0.14800
C15         C  0.47486003  0.20501862  0.96771230    -0.29400
C16         C  0.36278360  0.21030389  0.03654168    -0.29700
N17         N  0.35342973  0.22835110  0.99724773     0.15300
H18         H  0.36063933  0.21911021  0.07380858     0.17900
C19         C  0.36627814  0.21325883  0.95733720    -0.29700
H20         H  0.36739071  0.22481167  0.92170181     0.17900
H21         H  0.48644257  0.20408682  0.93204563     0.17900
H22         H  0.46052581  0.11741544  0.07429076     0.18000
H23         H  0.47864134  0.19826046  0.08513685     0.17900
C24         C  0.41083009  0.16965179  0.45030290     0.31800
C25         C  0.41603387  0.17357955  0.54736734     0.31800
C26         C  0.42200983  0.13707938  0.47500338    -0.04400
C27         C  0.43658069  0.19459613  0.46821748    -0.05200
C28         C  0.37901828  0.18135021  0.47623173    -0.05100
C29         C  0.42417700  0.13913287  0.52632884    -0.04400
C30         C  0.43954417  0.19660012  0.51947976    -0.05200
C31         C  0.38177726  0.18317950  0.52746365    -0.05100
C32         C  0.45153333  0.12029701  0.53981182    -0.30500
N33         N  0.46662136  0.10753704  0.49993099     0.16000
C34         C  0.44893839  0.11754512  0.46046610    -0.30500
H35         H  0.45798236  0.11565365  0.42335571     0.18000
C36         C  0.47224433  0.20383884  0.52909546    -0.29400
N37         N  0.48828184  0.20695462  0.48626951     0.14800
C38         C  0.46737426  0.20095234  0.44911509    -0.29400
C39         C  0.36405624  0.21113980  0.54183586    -0.29700
N40         N  0.35113383  0.22658876  0.50243174     0.15300
H41         H  0.36555084  0.22247012  0.57768464     0.17900
C42         C  0.36003308  0.20873095  0.46258070    -0.29700
H43         H  0.35773050  0.21784066  0.42554946     0.17900
H44         H  0.47478794  0.19809359  0.41130480     0.17900
H45         H  0.46295245  0.12099561  0.57565135     0.18000
H46         H  0.48416062  0.20370751  0.56455917     0.17900
C47         C  0.16950409  0.21260488  0.04927669     0.31800
C48         C  0.17507682  0.20627109  0.95212918     0.31800
C49         C  0.18104702  0.24413681  0.02302044    -0.04400
C50         C  0.19490826  0.18693558  0.03275267    -0.05200
C51         C  0.13752975  0.20122028  0.02330742    -0.05100
C52         C  0.18387013  0.24081373  0.97208515    -0.04400
C53         C  0.19779656  0.18335225  0.98159528    -0.05200
C54         C  0.14044441  0.19812479  0.97230579    -0.05100
C55         C  0.21051111  0.26049872  0.95827853    -0.30500
N56         N  0.22383128  0.27555963  0.99795535     0.16000
C57         C  0.20640523  0.26542467  0.03744011    -0.30500
H58         H  0.21454189  0.26911765  0.07477156     0.18000
C59         C  0.20567110  0.15062034  0.97323204    -0.29400
N60         N  0.20844429  0.13523763  0.01667090     0.14800
C61         C  0.20146709  0.15654595  0.05296439    -0.29400
C62         C  0.12030575  0.17164225  0.95878454    -0.29700
N63         N  0.10532839  0.15861099  0.99861279     0.15300
H64         H  0.12085491  0.15952580  0.92344396     0.17900
C65         C  0.11599421  0.17612222  0.03794907    -0.29700
H66         H  0.11250961  0.16815693  0.07532721     0.17900
H67         H  0.19801039  0.14958818  0.09081005     0.17900
H68         H  0.22245206  0.25963188  0.92289944     0.18000
H69         H  0.20613874  0.13818748  0.93814539     0.17900
C70         C  0.16708401  0.21174849  0.45155800     0.31800
C71         C  0.17455167  0.20388918  0.54810227     0.31800
C72         C  0.13561426  0.19975173  0.47830337    -0.04400
C73         C  0.19277087  0.18586257  0.46587090    -0.05200
C74         C  0.17932327  0.24283924  0.47860921    -0.05100
C75         C  0.13948586  0.19610054  0.52907414    -0.04400
C76         C  0.19663103  0.18132734  0.51674110    -0.05200
C77         C  0.18297833  0.23876452  0.52924332    -0.05100
C78         C  0.11962703  0.16945243  0.54260762    -0.30500
N79         N  0.10401070  0.15664830  0.50299826     0.16000
C80         C  0.11398574  0.17454327  0.46375663    -0.30500
H81         H  0.10985186  0.16690192  0.42629949     0.18000
C82         C  0.20413775  0.14828407  0.52302477    -0.29400
N83         N  0.20587945  0.13373430  0.47871582     0.14800
C84         C  0.19859645  0.15585817  0.44383377    -0.29400
C85         C  0.20979599  0.25834145  0.54297137    -0.29700
N86         N  0.22252881  0.27404272  0.50353821     0.15300
H87         H  0.22224177  0.25701678  0.57799376     0.17900
C88         C  0.20451912  0.26435783  0.46419185    -0.29700
H89         H  0.21203009  0.26864370  0.42679266     0.17900
H90         H  0.19428142  0.14971686  0.40581417     0.17900
H91         H  0.12084813  0.15704240  0.57759631     0.18000
H92         H  0.20503190  0.13510736  0.55742315     0.17900
C93         C  0.45458819  0.42661661  0.95397260     0.31800
C94         C  0.45962486  0.42296222  0.05105886     0.31800
C95         C  0.48895640  0.43570641  0.97403769    -0.04400
C96         C  0.43133850  0.45007333  0.98179945    -0.05200
C97         C  0.44600820  0.39236207  0.97499502    -0.05100
C98         C  0.49161606  0.43405282  0.02525802    -0.04400
C99         C  0.43430166  0.44822868  0.03307345    -0.05200
C100        C  0.44811170  0.39045716  0.02629437    -0.05100
C101        C  0.51107294  0.46113274  0.03896445    -0.30500
N102        N  0.02028872  0.47764129  0.00561673     0.16000
C103        C  0.50725518  0.46321954  0.95965280    -0.30500
H104        H  0.01531783  0.46708506  0.92899117     0.18000
C105        C  0.40368845  0.45523107  0.05229268    -0.29400
N106        N  0.38277524  0.46143018  0.01524492     0.14800
C107        C  0.39868726  0.45775350  0.97233575    -0.29400
C108        C  0.42120876  0.37092989  0.04077207    -0.29700
N109        N  0.40364731  0.36070462  0.00124348     0.15300
H110        H  0.41215951  0.36904482  0.07788554     0.17900
C111        C  0.41866875  0.37347895  0.96137907    -0.29700
H112        H  0.40729845  0.37401014  0.92552805     0.17900
H113        H  0.38663799  0.45731883  0.93694885     0.17900
H114        H  0.00415557  0.47547976  0.08027626     0.15600
H115        H  0.39627717  0.45240637  0.09008085     0.17900
C116        C  0.45954745  0.42016945  0.45368496     0.31800
C117        C  0.45495450  0.42445380  0.55073799     0.31800
C118        C  0.49170530  0.43137709  0.47913533    -0.04400
C119        C  0.43432506  0.44559919  0.47177255    -0.05200
C120        C  0.44802917  0.38783394  0.47852711    -0.05100
C121        C  0.48928417  0.43366862  0.53031379    -0.04400
C122        C  0.43169095  0.44780244  0.52302573    -0.05200
C123        C  0.44590549  0.39004902  0.52980731    -0.05100
C124        C  0.50748127  0.46172372  0.54371111    -0.30500
N125        N  0.01884696  0.47483722  0.49637934     0.16000
C126        C  0.51116034  0.45820995  0.46456602    -0.30500
H127        H  0.00216982  0.47215593  0.42201877     0.18000
C128        C  0.39928214  0.45609868  0.53292302    -0.29400
N129        N  0.38313349  0.45978107  0.49018414     0.14800
C130        C  0.40364821  0.45287229  0.45290552    -0.29400
C131        C  0.41809886  0.37158467  0.54304330    -0.29700
N132        N  0.40305555  0.35869122  0.50300977     0.15300
H133        H  0.40655129  0.37246974  0.57871927     0.17900
C134        C  0.42102112  0.36843604  0.46378174    -0.29700
H135        H  0.41218707  0.36639119  0.42651809     0.17900
H136        H  0.39593264  0.45000715  0.41520784     0.17900
H137        H  0.01438655  0.46495366  0.57322253     0.18000
H138        H  0.38754249  0.45624264  0.56847079     0.17900
C139        C  0.20383877  0.46272027  0.95235571     0.31800
C140        C  0.19816745  0.45633009  0.04923665     0.31800
C141        C  0.19222195  0.49427920  0.97879023    -0.04400
C142        C  0.17834064  0.43702171  0.96846762    -0.05200
C143        C  0.23581042  0.45113880  0.97821382    -0.05100
C144        C  0.18931841  0.49092848  0.02964857    -0.04400
C145        C  0.17542486  0.43334487  0.01965073    -0.05200
C146        C  0.23281446  0.44808946  0.02912906    -0.05100
C147        C  0.16248929  0.51046833  0.04344887    -0.30500
N148        N  0.15127623  0.02658087  0.00425119     0.16000
C149        C  0.16675973  0.51545561  0.96443841    -0.30500
H150        H  0.16013616  0.01945882  0.92747325     0.18000
C151        C  0.16846331  0.40036447  0.02763523    -0.29400
N152        N  0.16635296  0.38490877  0.98409514     0.14800
C153        C  0.17262592  0.40645311  0.94802174    -0.29400
C154        C  0.25286867  0.42157972  0.04268458    -0.29700
N155        N  0.26792786  0.40839795  0.00294181     0.15300
H156        H  0.25230114  0.40962503  0.07805163     0.17900
C157        C  0.25724510  0.42583218  0.96360882    -0.29700
H158        H  0.26080682  0.41781955  0.92619993     0.17900
H159        H  0.17658361  0.39956547  0.91020271     0.17900
H160        H  0.15356759  0.01140733  0.07947830     0.18000
H161        H  0.16851870  0.38784851  0.06259692     0.17900
C162        C  0.19812568  0.45498375  0.45292921     0.31800
C163        C  0.20269249  0.46109186  0.55002816     0.31800
C164        C  0.18851259  0.48934624  0.47278293    -0.04400
C165        C  0.17545837  0.43153880  0.48158738    -0.05200
C166        C  0.23269937  0.44719996  0.47381054    -0.05100
C167        C  0.19082765  0.49258196  0.52373619    -0.04400
C168        C  0.17779714  0.43502057  0.53288144    -0.05200
C169        C  0.23511210  0.45006815  0.52487765    -0.05100
C170        C  0.16487929  0.51336800  0.53764429    -0.30500
N171        N  0.14976045  0.02395163  0.49958116     0.16000
C172        C  0.16155719  0.50853289  0.45847688    -0.30500
H173        H  0.15141530  0.00808393  0.42453311     0.18000
C174        C  0.17219055  0.40428073  0.55265784    -0.29400
N175        N  0.16643347  0.38286079  0.51602929     0.14800
C176        C  0.16886537  0.39855351  0.47283355    -0.29400
C177        C  0.25643993  0.42472851  0.53972286    -0.29700
N178        N  0.26753153  0.40741727  0.50045748     0.15300
H179        H  0.25948761  0.41650720  0.57707374     0.17900
C180        C  0.25299080  0.42080249  0.46048908    -0.29700
H181        H  0.25278959  0.40894904  0.42495070     0.17900
H182        H  0.16914912  0.38624901  0.43762004     0.17900
H183        H  0.15907571  0.01734590  0.57636178     0.18000
H184        H  0.17560776  0.39728144  0.59049693     0.17900
O185        O  0.04226026  0.02516595  0.96376537    -0.70000
O186        O  0.08085468  0.11184338  0.96081393    -0.70200
O187        O  0.10479686  0.04931431  0.96327933    -0.70100
O188        O  0.01774253  0.08785869  0.96149653    -0.70100
O189        O  0.01822844  0.08972810  0.04075593    -0.70100
O190        O  0.10438177  0.05019106  0.04258757    -0.70100
O191        O  0.08127571  0.11314026  0.04011861    -0.70000
O192        O  0.04161664  0.02680581  0.04305083    -0.70200
V193        V  0.06136024  0.06862424  0.96388446     1.35200
V194        V  0.06133195  0.06999023  0.04003700     1.35200
C195        C  0.03552606  0.01107804  0.00388753     0.79200
C196        C  0.08829013  0.12701667  0.99992744     0.79300
C197        C  0.11925549  0.04280772  0.00330548     0.79200
C198        C  0.00311745  0.09541073  0.00101099     0.79100
O199        O  0.04070583  0.02418631  0.45970221    -0.70000
O200        O  0.08000505  0.11076485  0.46169780    -0.70200
O201        O  0.10324124  0.04777153  0.46066876    -0.70100
O202        O  0.01691801  0.08708989  0.46027024    -0.70100
O203        O  0.01601126  0.08615368  0.53952425    -0.70100
O204        O  0.10330299  0.04754819  0.53997604    -0.70100
O205        O  0.07926236  0.11019591  0.54099526    -0.70000
O206        O  0.04083331  0.02334446  0.53900811    -0.70200
V207        V  0.06016028  0.06749934  0.46219699     1.35200
V208        V  0.05978217  0.06690935  0.53834555     1.35200
C209        C  0.03458681  0.00875268  0.49899539     0.79200
C210        C  0.08689638  0.12502362  0.50179262     0.79300
C211        C  0.11790100  0.04058026  0.50020218     0.79200
C212        C  0.00153062  0.09322914  0.49961681     0.79100
O213        O  0.27019065  0.29978259  0.95965062    -0.70000
O214        O  0.35597899  0.33986411  0.96149008    -0.70200
O215        O  0.33286733  0.27684290  0.95927950    -0.70100
O216        O  0.29273795  0.36295698  0.96179590    -0.70100
O217        O  0.29297834  0.36203790  0.04108806    -0.70100
O218        O  0.33228397  0.27550188  0.03856100    -0.70100
O219        O  0.35628792  0.33843768  0.04077463    -0.70000
O220        O  0.26972898  0.29919976  0.03898404    -0.70200
V221        V  0.31299366  0.31991895  0.96215464     1.35200
V222        V  0.31288599  0.31889601  0.03831641     1.35200
C223        C  0.25545859  0.29234174  0.99894601     0.79200
C224        C  0.37098233  0.34572608  0.00129416     0.79300
C225        C  0.33898182  0.26124710  0.99842173     0.79200
C226        C  0.28539724  0.37695440  0.00187550     0.79100
O227        O  0.26827702  0.29838481  0.46272011    -0.70000
O228        O  0.35547732  0.33699921  0.46244448    -0.70200
O229        O  0.33062101  0.27432368  0.46256792    -0.70100
O230        O  0.29231939  0.36108800  0.46198188    -0.70100
O231        O  0.29174149  0.36148291  0.54127934    -0.70100
O232        O  0.33140622  0.27501275  0.54187728    -0.70100
O233        O  0.35493919  0.33800495  0.54172808    -0.70000
O234        O  0.26892955  0.29827546  0.54204324    -0.70200
V235        V  0.31173982  0.31781408  0.46397165     1.35200
V236        V  0.31180266  0.31827179  0.54013754     1.35200
C237        C  0.25409476  0.29109478  0.50262643     0.79200
C238        C  0.37016420  0.34397535  0.50225320     0.79300
C239        C  0.33718927  0.25966613  0.50228271     0.79200
C240        C  0.28471465  0.37581648  0.50136733     0.79100
C241        C  0.20722781  0.46728118  0.69996752     0.18800
C242        C  0.23603513  0.45824439  0.72538931    -0.10300
C243        C  0.23640063  0.45865942  0.77652650    -0.11200
C244        C  0.20796008  0.46811819  0.80246159     0.20400
C245        C  0.17917586  0.47717179  0.77701899    -0.13200
C246        C  0.17880907  0.47675694  0.72591643    -0.11500
C247        C  0.20794757  0.46771571  0.85507648     0.01300
C248        C  0.20683676  0.46630707  0.89905431    -0.31500
C249        C  0.20655226  0.46624778  0.64737716     0.02700
C250        C  0.20524063  0.46459933  0.60341639    -0.33200
H251        H  0.25810593  0.45072758  0.70571345     0.13800
H252        H  0.25873757  0.45143364  0.79580820     0.13600
H253        H  0.15698288  0.48435441  0.79667856     0.13400
H254        H  0.15635522  0.48364700  0.70666375     0.12500
C255        C  0.19572899  0.45195871  0.19966375     0.18800
C256        C  0.19753324  0.42179936  0.22501645    -0.10300
C257        C  0.19769448  0.42157914  0.27621905    -0.11200
C258        C  0.19605920  0.45151309  0.30236833     0.20400
C259        C  0.19457684  0.48165506  0.27698114    -0.13200
C260        C  0.19441303  0.48187973  0.22583649    -0.11500
C261        C  0.19591946  0.45146170  0.35511508     0.01300
C262        C  0.19623844  0.45243940  0.39923374    -0.31500
C263        C  0.19538824  0.45235777  0.14692425     0.02700
C264        C  0.19578356  0.45361016  0.10283466    -0.33200
H265        H  0.19873196  0.39850862  0.20524139     0.13800
H266        H  0.19899989  0.39810939  0.29538105     0.13600
H267        H  0.19346044  0.50497466  0.29673127     0.13400
H268        H  0.19318717  0.50535963  0.20670923     0.12500
C269        C  0.45197038  0.42880135  0.80363368     0.18800
C270        C  0.46351095  0.45645792  0.77768526    -0.10300
C271        C  0.46362460  0.45608250  0.72653821    -0.11200
C272        C  0.45220932  0.42805034  0.70110404     0.20400
C273        C  0.44080038  0.40036463  0.72708298    -0.13200
C274        C  0.44068541  0.40073819  0.77819418    -0.11500
C275        C  0.45246330  0.42751544  0.64845858     0.01300
C276        C  0.45312451  0.42650538  0.60440398    -0.31500
C277        C  0.45200950  0.42898968  0.85626465     0.02700
C278        C  0.45257705  0.42837821  0.90031842    -0.33200
H279        H  0.47242883  0.47823976  0.79695683     0.13800
H280        H  0.47262485  0.47758816  0.70685710     0.13600
H281        H  0.43203141  0.37850591  0.70783837     0.13400
H282        H  0.43183745  0.37916608  0.79786008     0.12500
C283        C  0.46455652  0.41836223  0.30364457     0.18800
C284        C  0.44590748  0.44225302  0.27865328    -0.10300
C285        C  0.44594883  0.44294202  0.22758231    -0.11200
C286        C  0.46465512  0.41974489  0.20119334     0.20400
C287        C  0.48350343  0.39597365  0.22617010    -0.13200
C288        C  0.48345974  0.39528513  0.27730538    -0.11500
C289        C  0.46406612  0.42014791  0.14858482     0.01300
C290        C  0.46263152  0.42099014  0.10458381    -0.31500
C291        C  0.46392705  0.41752877  0.35620847     0.02700
C292        C  0.46239022  0.41798243  0.40019246    -0.33200
H293        H  0.43121623  0.46022534  0.29865051     0.13800
H294        H  0.43127434  0.46142471  0.20868105     0.13600
H295        H  0.49805372  0.37791518  0.20614636     0.13400
H296        H  0.49799496  0.37671151  0.29624888     0.12500
C297        C  0.29216921  0.99533065  0.46773016     0.18800
C298        C  0.27668455  0.00310804  0.42343318    -0.10300
C299        C  0.25279537  0.02809224  0.42224404    -0.11200
C300        C  0.24478828  0.04494992  0.46539218     0.20400
C301        C  0.25982410  0.03658903  0.50964202    -0.13200
C302        C  0.28354991  0.01177225  0.51081853    -0.11500
C303        C  0.22430020  0.07345465  0.46450897     0.01300
C304        C  0.21346869  0.10070484  0.47009221    -0.31500
C305        C  0.31980118  0.97369560  0.46895152     0.02700
C306        C  0.35004779  0.46850894  0.48499527    -0.33200
H307        H  0.28375020  0.99062393  0.38992109     0.13800
H308        H  0.24140332  0.03490373  0.38785287     0.13600
H309        H  0.25391350  0.04995836  0.54291963     0.13400
H310        H  0.29588886  0.00606771  0.54498272     0.12500
C311        C  0.24836480  0.04662845  0.03083449     0.18800
C312        C  0.25561562  0.03182954  0.07579111    -0.10300
C313        C  0.27977161  0.00717726  0.07811657    -0.11200
C314        C  0.29630411  0.99769221  0.03543602     0.20400
C315        C  0.28831258  0.01189427  0.99045927    -0.13200
C316        C  0.26426535  0.03636955  0.98813730    -0.11500
C317        C  0.32465234  0.97713355  0.03767052     0.01300
C318        C  0.34949029  0.46921440  0.02081333    -0.31500
C319        C  0.22783439  0.07505770  0.02860430     0.02700
C320        C  0.21668152  0.10218367  0.02331516    -0.33200
H321        H  0.24348491  0.04009473  0.10894372     0.13800
H322        H  0.28635654  0.99645259  0.11305806     0.13600
H323        H  0.30149090  0.00484952  0.95753376     0.13400
H324        H  0.25890339  0.04811591  0.95344220     0.12500
C325        C  0.17995059  0.20001651  0.69860907     0.18800
C326        C  0.16147637  0.17653832  0.72484834    -0.10300
C327        C  0.16122622  0.17726101  0.77604611    -0.11200
C328        C  0.17943560  0.20146561  0.80146714     0.20400
C329        C  0.19791042  0.22495757  0.77523732    -0.13200
C330        C  0.19816238  0.22423657  0.72402756    -0.11500
C331        C  0.17880079  0.20244397  0.85428611     0.01300
C332        C  0.17765864  0.20367314  0.89841650    -0.31500
C333        C  0.17950286  0.19980200  0.64575900     0.02700
C334        C  0.17809849  0.20068052  0.60162349    -0.33200
H335        H  0.14713725  0.15779994  0.70573621     0.13800
H336        H  0.14672917  0.15902951  0.79579817     0.13600
H337        H  0.21199849  0.24389171  0.79435410     0.13400
H338        H  0.21240431  0.24265798  0.70426591     0.12500
C339        C  0.16258871  0.21851056  0.30186811     0.18800
C340        C  0.13675232  0.23323880  0.27533184    -0.10300
C341        C  0.13750018  0.23317489  0.22415328    -0.11200
C342        C  0.16408244  0.21838928  0.19930519     0.20400
C343        C  0.18991511  0.20373823  0.22589686    -0.13200
C344        C  0.18916732  0.20380125  0.27698222    -0.11500
C345        C  0.16484436  0.21781522  0.14664112     0.01300
C346        C  0.16642791  0.21620988  0.10266038    -0.31500
C347        C  0.16193111  0.21804558  0.35451510     0.02700
C348        C  0.16316189  0.21616714  0.39847521    -0.33200
H349        H  0.11604609  0.24464076  0.29415047     0.13800
H350        H  0.11735255  0.24452769  0.20400244     0.13600
H351        H  0.21056180  0.19217442  0.20713929     0.13400
H352        H  0.20925539  0.19228395  0.29708166     0.12500
C353        C  0.12661039  0.29439604  0.52488283     0.18800
C354        C  0.11278536  0.28501047  0.48011612    -0.10300
C355        C  0.08754667  0.26162307  0.47893632    -0.11200
C356        C  0.07628638  0.24770476  0.52253368     0.20400
C357        C  0.09060353  0.25642484  0.56732840    -0.13200
C358        C  0.11595791  0.27991997  0.56851381    -0.11500
C359        C  0.04705154  0.22831077  0.52131735     0.01300
C360        C  0.52133095  0.21557952  0.48111748    -0.31500
C361        C  0.14797857  0.32226799  0.52584061     0.02700
C362        C  0.15906103  0.34954913  0.52205990    -0.33200
H363        H  0.12072735  0.29662745  0.44641745     0.13800
H364        H  0.07607095  0.25521535  0.44433857     0.13600
H365        H  0.08134645  0.24606885  0.60117451     0.13400
H366        H  0.12626550  0.28772616  0.60326778     0.12500
C367        C  0.12854754  0.29573789  0.97123808     0.18800
C368        C  0.11353229  0.28606907  0.01487619    -0.10300
C369        C  0.08855679  0.26242818  0.01402939    -0.11200
C370        C  0.07875713  0.24846955  0.96956470     0.20400
C371        C  0.09438416  0.25734599  0.92590102    -0.13200
C372        C  0.11947767  0.28115677  0.92674858    -0.11500
C373        C  0.04963809  0.22886877  0.96892501     0.01300
C374        C  0.52520937  0.21288344  0.01458779    -0.31500
C375        C  0.14935143  0.32401964  0.97214520     0.02700
C376        C  0.15969010  0.35150772  0.97720742    -0.33200
H377        H  0.12024915  0.29774705  0.04921685     0.13800
H378        H  0.07608868  0.25588190  0.04772731     0.13600
H379        H  0.08632536  0.24689964  0.89135729     0.13400
H380        H  0.13077902  0.28913273  0.89284929     0.12500
C381        C  0.42187612  0.17800127  0.69748568     0.18800
C382        C  0.43827181  0.15288340  0.72331945    -0.10300
C383        C  0.43860532  0.15329459  0.77444878    -0.11200
C384        C  0.42254788  0.17882161  0.80000183     0.20400
C385        C  0.40649733  0.20414748  0.77414582    -0.13200
C386        C  0.40616449  0.20373771  0.72302365    -0.11500
C387        C  0.42173839  0.17850456  0.85263087     0.01300
C388        C  0.42042583  0.17757309  0.89664785    -0.31500
C389        C  0.42043567  0.17692622  0.64492013     0.02700
C390        C  0.41859815  0.17564280  0.60096603    -0.33200
H391        H  0.45047546  0.13284133  0.70397220     0.13800
H392        H  0.45105746  0.13355483  0.79403674     0.13600
H393        H  0.39395784  0.22398221  0.79348927     0.13400
H394        H  0.39338135  0.22326476  0.70344178     0.12500
C395        C  0.40866756  0.16784065  0.19747333     0.18800
C396        C  0.39296722  0.19350686  0.22319023    -0.10300
C397        C  0.39221930  0.19310207  0.27430407    -0.11200
C398        C  0.40715833  0.16702036  0.29998675     0.20400
C399        C  0.42284526  0.14134445  0.27426010    -0.13200
C400        C  0.42359389  0.14174896  0.22314064    -0.11500
C401        C  0.40703321  0.16699480  0.35264678     0.01300
C402        C  0.40792598  0.16764436  0.39671450    -0.31500
C403        C  0.40982021  0.16851715  0.14487574     0.02700
C404        C  0.41124988  0.16957160  0.10088260    -0.33200
H405        H  0.38143527  0.21386233  0.20375121     0.13800
H406        H  0.38014915  0.21316857  0.29377980     0.13600
H407        H  0.43461518  0.12112902  0.29370741     0.13400
H408        H  0.43589955  0.12182791  0.20366534     0.12500
C409        C  0.41514320  0.67360292  0.95050786     0.31800
C410        C  0.41144396  0.67092632  0.04759430     0.31800
C411        C  0.42493837  0.63974756  0.97210431    -0.04400
C412        C  0.43838700  0.69781711  0.97699745    -0.05200
C413        C  0.38090557  0.68272499  0.97117457    -0.05100
C414        C  0.42339484  0.63837118  0.02342919    -0.04400
C415        C  0.43613282  0.69648673  0.02848511    -0.05200
C416        C  0.37893477  0.68139981  0.02246927    -0.05100
C417        C  0.45110900  0.61992411  0.03794995    -0.30500
N418        N  0.46888125  0.60994725  0.99853833     0.16000
C419        C  0.45300963  0.62173954  0.95861174    -0.30500
H420        H  0.46405579  0.62224943  0.92257574     0.18000
C421        C  0.46710405  0.70333347  0.04661339    -0.29400
N422        N  0.48752587  0.70877894  0.00884956     0.14800
C423        C  0.47096204  0.70505585  0.96648572    -0.29400
C424        C  0.35982557  0.70870418  0.03635051    -0.29700
N425        N  0.35036630  0.72633931  0.99667231     0.15300
H426        H  0.35809883  0.71811242  0.07334067     0.17900
C427        C  0.36275125  0.71055079  0.95707261    -0.29700
H428        H  0.36375667  0.72165595  0.92112844     0.17900
H429        H  0.48254740  0.70381085  0.93086622     0.17900
H430        H  0.46039921  0.61868933  0.07502912     0.18000
H431        H  0.47512678  0.70042904  0.08414635     0.17900
C432        C  0.40977128  0.66843530  0.45047087     0.31800
C433        C  0.41487552  0.67175337  0.54751014     0.31800
C434        C  0.42273314  0.63626200  0.47453087    -0.04400
C435        C  0.43404035  0.69463197  0.46883902    -0.05200
C436        C  0.37742065  0.67846385  0.47650755    -0.05100
C437        C  0.42485809  0.63797056  0.52577668    -0.04400
C438        C  0.43709917  0.69630815  0.52008627    -0.05200
C439        C  0.38013916  0.68004799  0.52781478    -0.05100
C440        C  0.45304808  0.62012950  0.53891048    -0.30500
N441        N  0.46851849  0.60802249  0.49881929     0.16000
C442        C  0.45043723  0.61787555  0.45960005    -0.30500
H443        H  0.45936657  0.61640248  0.42236865     0.18000
C444        C  0.46927692  0.70572708  0.52946543    -0.29400
N445        N  0.48465729  0.71066785  0.48642926     0.14800
C446        C  0.46401006  0.70353774  0.44941314    -0.29400
C447        C  0.36184658  0.70767706  0.54240907    -0.29700
N448        N  0.34885820  0.72326779  0.50315322     0.15300
H449        H  0.36332044  0.71895377  0.57829647     0.17900
C450        C  0.35785640  0.70556436  0.46321343    -0.29700
H451        H  0.35557862  0.71488685  0.42628872     0.17900
H452        H  0.47142084  0.70124037  0.41153481     0.17900
H453        H  0.46436551  0.62080308  0.57478832     0.18000
H454        H  0.48155701  0.70554009  0.56465895     0.17900
C455        C  0.16618653  0.71463714  0.04743489     0.31800
C456        C  0.17296380  0.70671951  0.95069021     0.31800
C457        C  0.17804958  0.74575830  0.02038819    -0.04400
C458        C  0.19196884  0.68889791  0.03264452    -0.05200
C459        C  0.13462095  0.70235767  0.02106091    -0.05100
C460        C  0.18140299  0.74168313  0.96962320    -0.04400
C461        C  0.19547925  0.68440148  0.98165938    -0.05200
C462        C  0.13810851  0.69859323  0.97022620    -0.05100
C463        C  0.20852059  0.76088426  0.95603799    -0.30500
N464        N  0.22172959  0.77621163  0.99561773     0.16000
C465        C  0.20358546  0.76691736  0.03484920    -0.30500
H466        H  0.21134044  0.77094722  0.07227034     0.18000
C467        C  0.20325616  0.65146916  0.97495959    -0.29400
N468        N  0.20541076  0.63686878  0.01907517     0.14800
C469        C  0.19817874  0.65889026  0.05429105    -0.29400
C470        C  0.11846568  0.67158615  0.95708072    -0.29700
N471        N  0.10332428  0.65875346  0.99694064     0.15300
H472        H  0.11952800  0.65903717  0.92209422     0.17900
C473        C  0.11338300  0.67698316  0.03596321    -0.29700
H474        H  0.10963735  0.66948358  0.07349844     0.17900
H475        H  0.19407741  0.65263644  0.09227016     0.17900
H476        H  0.22090743  0.75929439  0.92104039     0.18000
H477        H  0.20392577  0.63833397  0.94040557     0.17900
C478        C  0.16453009  0.71165645  0.44963277     0.31800
C479        C  0.17198875  0.70299185  0.54609827     0.31800
C480        C  0.13306007  0.69937945  0.47614420    -0.04400
C481        C  0.19016172  0.68552790  0.46344953    -0.05200
C482        C  0.17681678  0.74250591  0.47732775    -0.05100
C483        C  0.13698079  0.69532380  0.52686433    -0.04400
C484        C  0.19404779  0.68067504  0.51432839    -0.05200
C485        C  0.18041768  0.73798011  0.52789781    -0.05100
C486        C  0.11717122  0.66859974  0.54004536    -0.30500
N487        N  0.10155738  0.65602105  0.50030515     0.16000
C488        C  0.11148654  0.67416985  0.46126257    -0.30500
H489        H  0.10734653  0.66674328  0.42371942     0.18000
C490        C  0.20117409  0.64754598  0.52025348    -0.29400
N491        N  0.20252214  0.63309341  0.47587818     0.14800
C492        C  0.19548164  0.65545076  0.44117228    -0.29400
C493        C  0.20742155  0.75712020  0.54205694    -0.29700
N494        N  0.22050690  0.77282667  0.50293491     0.15300
H495        H  0.21982860  0.75528889  0.57706288     0.17900
C496        C  0.20236508  0.76378344  0.46339507    -0.29700
H497        H  0.21005256  0.76818361  0.42609518     0.17900
H498        H  0.19102938  0.64949738  0.40312483     0.17900
H499        H  0.11840664  0.65599844  0.57488445     0.18000
H500        H  0.20206882  0.63425496  0.55455835     0.17900
C501        C  0.45391269  0.92648842  0.95444736     0.31800
C502        C  0.46219490  0.91848779  0.05077100     0.31800
C503        C  0.48910723  0.93411926  0.97278837    -0.04400
C504        C  0.43223892  0.94912533  0.98632373    -0.05200
C505        C  0.44525303  0.89154872  0.97293958    -0.05100
C506        C  0.49344070  0.93049919  0.02363679    -0.04400
C507        C  0.43689634  0.94492255  0.03710552    -0.05200
C508        C  0.44896692  0.88735637  0.02374774    -0.05100
C509        C  0.51313449  0.95738086  0.03806736    -0.30500
N510        N  0.02097585  0.97823818  0.00488379     0.16000
C511        C  0.50704897  0.96208059  0.95935842    -0.30500
H512        H  0.01502813  0.96866359  0.92810060     0.18000
C513        C  0.40716933  0.95146999  0.05932721    -0.29400
N514        N  0.38516908  0.95953018  0.02458687     0.14800
C515        C  0.39949125  0.95767479  0.98023125    -0.29400
C516        C  0.42205045  0.86764692  0.03815759    -0.29700
N517        N  0.40314828  0.85923601  0.99895377     0.15300
H518        H  0.41418108  0.86414353  0.07558689     0.17900
C519        C  0.41718099  0.87364199  0.95946819    -0.29700
H520        H  0.40480133  0.87582036  0.92447667     0.17900
H521        H  0.38618585  0.95885163  0.94589956     0.17900
H522        H  0.00561113  0.97525475  0.07987391     0.15600
H523        H  0.40096102  0.94683235  0.09720546     0.17900
C524        C  0.45844296  0.91726060  0.45372877     0.31800
C525        C  0.45091151  0.92462502  0.55031930     0.31800
C526        C  0.48953923  0.93010764  0.48047038    -0.04400
C527        C  0.43218648  0.94261226  0.46836881    -0.05200
C528        C  0.44671934  0.88555406  0.48038516    -0.05100
C529        C  0.48559994  0.93369388  0.53128231    -0.04400
C530        C  0.42796175  0.94645230  0.51933432    -0.05200
C531        C  0.44321004  0.88939976  0.53137011    -0.05100
C532        C  0.50330052  0.96201388  0.54447965    -0.30500
N533        N  0.02046148  0.97572015  0.49804308     0.16000
C534        C  0.50904755  0.95693596  0.46576148    -0.30500
H535        H  0.00431312  0.97335343  0.42339534     0.18000
C536        C  0.39489411  0.95341252  0.52640476    -0.29400
N537        N  0.37986381  0.95462693  0.48249490     0.14800
C538        C  0.40179129  0.94771017  0.44709177    -0.29400
C539        C  0.41552586  0.87076001  0.54451544    -0.29700
N540        N  0.40165447  0.85631752  0.50473386     0.15300
H541        H  0.40310358  0.87260296  0.57948401     0.17900
C542        C  0.42033512  0.86521482  0.46572741    -0.29700
H543        H  0.41238343  0.86184600  0.42824903     0.17900
H544        H  0.39536268  0.94327782  0.40922004     0.17900
H545        H  0.01533472  0.96558797  0.57472787     0.18000
H546        H  0.38208714  0.95430996  0.56113065     0.17900
C547        C  0.20506165  0.96337618  0.95289594     0.31800
C548        C  0.20087871  0.95811244  0.05007366     0.31800
C549        C  0.19436677  0.99542924  0.97889359    -0.04400
C550        C  0.17936458  0.93832093  0.97056795    -0.05200
C551        C  0.23719578  0.95155090  0.97775966    -0.05100
C552        C  0.19210163  0.99263601  0.02998690    -0.04400
C553        C  0.17720349  0.93537153  0.02191573    -0.05200
C554        C  0.23498331  0.94890689  0.02877274    -0.05100
C555        C  0.16523677  0.01214913  0.04389226    -0.30500
N556        N  0.14915368  0.52554561  0.00387243     0.16000
C557        C  0.16864570  0.01633988  0.96470192    -0.30500
H558        H  0.15873149  0.51913438  0.92707927     0.18000
C559        C  0.16925086  0.90285822  0.03126620    -0.29400
N560        N  0.16591720  0.88691132  0.98833458     0.14800
C561        C  0.17238444  0.90767086  0.95129287    -0.29400
C562        C  0.25458129  0.92190832  0.04177549    -0.29700
N563        N  0.26868545  0.90821646  0.00160862     0.15300
H564        H  0.25433175  0.91011495  0.07726030     0.17900
C565        C  0.25783752  0.92576481  0.96256236    -0.29700
H566        H  0.26058848  0.91752507  0.92511244     0.17900
H567        H  0.17540900  0.90012507  0.91357408     0.17900
H568        H  0.15048406  0.50950807  0.07879041     0.18000
H569        H  0.16936165  0.89087255  0.06664233     0.17900
C570        C  0.19819724  0.95449626  0.45397078     0.31800
C571        C  0.20369365  0.96065861  0.55095159     0.31800
C572        C  0.19001269  0.98928793  0.47381286    -0.04400
C573        C  0.17471296  0.93214580  0.48306581    -0.05200
C574        C  0.23249725  0.94531119  0.47449169    -0.05100
C575        C  0.19279640  0.99255448  0.52479317    -0.04400
C576        C  0.17758212  0.93563105  0.53430249    -0.05200
C577        C  0.23542667  0.94835102  0.52537297    -0.05100
C578        C  0.16728856  0.01381433  0.53907863    -0.30500
N579        N  0.14757158  0.52334707  0.49784805     0.16000
C580        C  0.16330649  0.00899364  0.46000301    -0.30500
H581        H  0.15002280  0.50756294  0.42276615     0.18000
C582        C  0.17048987  0.90531427  0.55437446    -0.29400
N583        N  0.16328749  0.88416305  0.51793898     0.14800
C584        C  0.16632089  0.89956390  0.47459426    -0.29400
C585        C  0.25629372  0.92263348  0.54016489    -0.29700
N586        N  0.26671266  0.90491805  0.50089508     0.15300
H587        H  0.25964920  0.91465638  0.57757338     0.17900
C588        C  0.25197285  0.91831030  0.46106606    -0.29700
H589        H  0.25129527  0.90634347  0.42562901     0.17900
H590        H  0.16599148  0.88711811  0.43947287     0.17900
H591        H  0.15640544  0.51686630  0.57482162     0.18000
H592        H  0.17405007  0.89818577  0.59212973     0.17900
O593        O  0.04086554  0.52458419  0.96378497    -0.70000
O594        O  0.07895904  0.61155941  0.95974607    -0.70200
O595        O  0.10311964  0.54899364  0.96275789    -0.70100
O596        O  0.01591023  0.58711402  0.96087501    -0.70100
O597        O  0.01653010  0.58958259  0.04009608    -0.70100
O598        O  0.10270732  0.55007624  0.04206407    -0.70100
O599        O  0.07963471  0.61319173  0.03902066    -0.70000
O600        O  0.04011532  0.52675937  0.04304399    -0.70200
V601        V  0.05965476  0.56818579  0.96333391     1.35200
V602        V  0.05970957  0.56995394  0.03946402     1.35200
C603        C  0.03430575  0.51068090  0.00411157     0.79200
C604        C  0.08648197  0.62696769  0.99866496     0.79300
C605        C  0.11746108  0.54236671  0.00281517     0.79200
C606        C  0.00127441  0.59480029  0.00032777     0.79100
O607        O  0.03859157  0.52331325  0.45754071    -0.70000
O608        O  0.07780396  0.60996206  0.45897875    -0.70200
O609        O  0.10109299  0.54691185  0.45840320    -0.70100
O610        O  0.01473446  0.58616016  0.45779597    -0.70100
O611        O  0.01370868  0.58512191  0.53705139    -0.70100
O612        O  0.10116012  0.54721976  0.53771829    -0.70100
O613        O  0.07672035  0.60967502  0.53827351    -0.70000
O614        O  0.03899232  0.52263330  0.53685769    -0.70200
V615        V  0.05799413  0.56664713  0.45975996     1.35200
V616        V  0.05758284  0.56627069  0.53591859     1.35200
C617        C  0.03271440  0.50794050  0.49696214     0.79200
C618        C  0.08447830  0.62438299  0.49903004     0.79300
C619        C  0.11573017  0.53996556  0.49805774     0.79200
C620        C  0.99926002  0.59213053  0.49713920     0.79100
O621        O  0.26890124  0.79924377  0.95774519    -0.70000
O622        O  0.35522413  0.83835668  0.95965230    -0.70200
O623        O  0.33126027  0.77532292  0.95791523    -0.70100
O624        O  0.29226242  0.86218076  0.96004514    -0.70100
O625        O  0.29291459  0.86141123  0.03933448    -0.70100
O626        O  0.33018891  0.77415636  0.03717942    -0.70100
O627        O  0.35576991  0.83669471  0.03889913    -0.70000
O628        O  0.26807822  0.79912367  0.03705834    -0.70200
V629        V  0.31198745  0.81881534  0.96042601     1.35200
V630        V  0.31181650  0.81792436  0.03656810     1.35200
C631        C  0.25379213  0.79232817  0.99693071     0.79200
C632        C  0.37041238  0.84412411  0.99935200     0.79300
C633        C  0.33673400  0.75962612  0.99724591     0.79200
C634        C  0.28543026  0.87639836  0.00020548     0.79100
O635        O  0.26701778  0.79613390  0.46274715    -0.70000
O636        O  0.35451082  0.83409080  0.46359198    -0.70200
O637        O  0.32917045  0.77144377  0.46331877    -0.70100
O638        O  0.29149110  0.85854383  0.46249940    -0.70100
O639        O  0.29058966  0.85885450  0.54179089    -0.70100
O640        O  0.32949668  0.77196425  0.54262225    -0.70100
O641        O  0.35357613  0.83496672  0.54286477    -0.70000
O642        O  0.26721707  0.79594447  0.54207526    -0.70200
V643        V  0.31063786  0.81513849  0.46459134     1.35200
V644        V  0.31030461  0.81548585  0.54075029     1.35200
C645        C  0.25245986  0.78912397  0.50245395     0.79200
C646        C  0.36895970  0.84112407  0.50356337     0.79300
C647        C  0.33529518  0.75657541  0.50304525     0.79200
C648        C  0.28376212  0.87324813  0.50184992     0.79100
C649        C  0.20945636  0.96550612  0.70064477     0.18800
C650        C  0.23921447  0.97065112  0.72617992    -0.10300
C651        C  0.23925190  0.97109712  0.77734051    -0.11200
C652        C  0.20953597  0.96640047  0.80302428     0.20400
C653        C  0.17991309  0.96095247  0.77742457    -0.13200
C654        C  0.17987432  0.96050554  0.72639836    -0.11500
C655        C  0.20919548  0.96688243  0.85556681     0.01300
C656        C  0.20763952  0.96623295  0.89951537    -0.31500
C657        C  0.20897413  0.96519776  0.64810269     0.02700
C658        C  0.20702845  0.96401835  0.60420026    -0.33200
H659        H  0.26226678  0.97437593  0.70660775     0.13800
H660        H  0.26234055  0.97514840  0.79680396     0.13600
H661        H  0.15684237  0.95711304  0.79691840     0.13400
H662        H  0.15677368  0.95634016  0.70701958     0.12500
C663        C  0.19992432  0.95273585  0.20066964     0.18800
C664        C  0.19065874  0.92360226  0.22512499    -0.10300
C665        C  0.18992577  0.92284215  0.27631681    -0.11200
C666        C  0.19845153  0.95120990  0.30338763     0.20400
C667        C  0.20836104  0.98010553  0.27891743    -0.13200
C668        C  0.20909097  0.98086969  0.22777842    -0.11500
C669        C  0.19678657  0.95095104  0.35611414     0.01300
C670        C  0.19624557  0.95191374  0.40025062    -0.31500
C671        C  0.19951153  0.95404403  0.14792049     0.02700
C672        C  0.19940867  0.95573246  0.10383132    -0.33200
H673        H  0.18368045  0.90162567  0.20464753     0.13800
H674        H  0.18241530  0.90027489  0.29474159     0.13600
H675        H  0.21521902  0.00214375  0.29937525     0.13400
H676        H  0.21647053  0.00348554  0.20937937     0.12500
C677        C  0.44875085  0.93323593  0.80393571     0.18800
C678        C  0.47023905  0.91231404  0.77796443    -0.10300
C679        C  0.46974394  0.91182856  0.72679456    -0.11200
C680        C  0.44775712  0.93225776  0.70094747     0.20400
C681        C  0.42652500  0.95354564  0.72684802    -0.13200
C682        C  0.42701752  0.95403214  0.77814888    -0.11500
C683        C  0.44697865  0.93092146  0.64805182     0.01300
C684        C  0.44772893  0.92855392  0.60393597    -0.31500
C685        C  0.44884061  0.93271700  0.85685789     0.02700
C686        C  0.45018412  0.93064773  0.90095682    -0.33200
H687        H  0.48721294  0.89615525  0.79729557     0.13800
H688        H  0.48636567  0.89531626  0.70737647     0.13600
H689        H  0.40945264  0.96955938  0.70743960     0.13400
H690        H  0.41030479  0.97039155  0.79765186     0.12500
C691        C  0.46761470  0.90964878  0.30369490     0.18800
C692        C  0.49340809  0.92586442  0.27891300    -0.10300
C693        C  0.49423022  0.92596644  0.22767976    -0.11200
C694        C  0.46927107  0.90984604  0.20079889     0.20400
C695        C  0.44381095  0.89316822  0.22561578    -0.13200
C696        C  0.44298890  0.89306771  0.27680348    -0.11500
C697        C  0.46882687  0.91163146  0.14798372     0.01300
C698        C  0.46681586  0.91411102  0.10400900    -0.31500
C699        C  0.46561741  0.91111435  0.35645477     0.02700
C700        C  0.46290183  0.91330387  0.40038409    -0.33200
H701        H  0.51257326  0.93885352  0.29915834     0.13800
H702        H  0.51400918  0.93905122  0.20906051     0.13600
H703        H  0.42429650  0.88069646  0.20538937     0.13400
H704        H  0.42286168  0.88050098  0.29539196     0.12500
C705        C  0.29384753  0.49930881  0.47593546     0.18800
C706        C  0.27999985  0.50566286  0.42998181    -0.10300
C707        C  0.25448717  0.52879958  0.42569138    -0.11200
C708        C  0.24320219  0.54534748  0.46742873     0.20400
C709        C  0.25654367  0.53831159  0.51338389    -0.13200
C710        C  0.28190719  0.51527605  0.51765696    -0.11500
C711        C  0.22155078  0.57288435  0.46341450     0.01300
C712        C  0.21016174  0.60004689  0.46737729    -0.31500
C713        C  0.32283621  0.47961910  0.48004407     0.02700
C714        C  0.34679520  0.96231117  0.47462951    -0.33200
H715        H  0.28961304  0.49358776  0.39755298     0.13800
H716        H  0.24448973  0.53464833  0.38998705     0.13600
H717        H  0.24811838  0.55150503  0.54561904     0.13400
H718        H  0.29291402  0.51069317  0.55314071     0.12500
C719        C  0.24419339  0.54795798  0.03025444     0.18800
C720        C  0.25355639  0.53182437  0.07330437    -0.10300
C721        C  0.27830711  0.50770960  0.07163060    -0.11200
C722        C  0.29330783  0.50002553  0.02692238     0.20400
C723        C  0.28314136  0.51549333  0.98386495    -0.13200
C724        C  0.25854591  0.53947110  0.98554023    -0.11500
C725        C  0.32208071  0.47988434  0.02536133     0.01300
C726        C  0.35208535  0.96670355  0.03298394    -0.31500
C727        C  0.22358266  0.57638175  0.03180962     0.02700
C728        C  0.21288309  0.60375318  0.02705783    -0.33200
H729        H  0.24271294  0.53875032  0.10806086     0.13800
H730        H  0.28653526  0.49600185  0.10509331     0.13600
H731        H  0.29507219  0.50987980  0.94937469     0.13400
H732        H  0.25160479  0.55230860  0.95230311     0.12500
C733        C  0.17722049  0.69923759  0.69683154     0.18800
C734        C  0.14913211  0.71014445  0.72245840    -0.10300
C735        C  0.14922021  0.71098241  0.77367298    -0.11200
C736        C  0.17740370  0.70093785  0.79986538     0.20400
C737        C  0.20556829  0.69015595  0.77425983    -0.13200
C738        C  0.20547941  0.68931441  0.72298183    -0.11500
C739        C  0.17729886  0.70184211  0.85281912     0.01300
C740        C  0.17612792  0.70333629  0.89700584    -0.31500
C741        C  0.17696304  0.69864103  0.64388242     0.02700
C742        C  0.17553351  0.69944584  0.59968561    -0.33200
H743        H  0.12715555  0.71802576  0.70283206     0.13800
H744        H  0.12729539  0.71946869  0.79285102     0.13600
H745        H  0.22757265  0.68240199  0.79390732     0.13400
H746        H  0.22742803  0.68094926  0.70376455     0.12500
C747        C  0.15929332  0.72057852  0.30000670     0.18800
C748        C  0.14866842  0.74889773  0.27468996    -0.10300
C749        C  0.14910923  0.74933664  0.22343828    -0.11200
C750        C  0.16018590  0.72146415  0.19732604     0.20400
C751        C  0.17091799  0.69329665  0.22273580    -0.13200
C752        C  0.17047498  0.69286079  0.27380893    -0.11500
C753        C  0.16079236  0.72140902  0.14459097     0.01300
C754        C  0.16248638  0.71927229  0.10063039    -0.31500
C755        C  0.15916076  0.71965909  0.35272874     0.02700
C756        C  0.16058709  0.71685027  0.39661735    -0.33200
H757        H  0.14007888  0.77055153  0.29449707     0.13800
H758        H  0.14083522  0.77131335  0.20424672     0.13600
H759        H  0.17962281  0.67164314  0.20303674     0.13400
H760        H  0.17886688  0.67087548  0.29290179     0.12500
C761        C  0.12448764  0.79494411  0.52824603     0.18800
C762        C  0.10941217  0.78561382  0.48435704    -0.10300
C763        C  0.08530521  0.76106564  0.48439728    -0.11200
C764        C  0.07650166  0.74582829  0.52828565     0.20400
C765        C  0.09203672  0.75459208  0.57217633    -0.13200
C766        C  0.11621269  0.77932230  0.57215091    -0.11500
C767        C  0.04866610  0.72443113  0.52830835     0.01300
C768        C  0.51763012  0.71934944  0.48068035    -0.31500
C769        C  0.14483533  0.82356002  0.52834757     0.02700
C770        C  0.15554139  0.85096250  0.52419741    -0.33200
H771        H  0.11550469  0.79809031  0.45049162     0.13800
H772        H  0.07289096  0.75458386  0.45052742     0.13600
H773        H  0.08475549  0.74311421  0.60628155     0.13400
H774        H  0.12755228  0.78701421  0.60625871     0.12500
C775        C  0.12528659  0.79864913  0.97846093     0.18800
C776        C  0.11140012  0.78798724  0.02242755    -0.10300
C777        C  0.08670727  0.76400902  0.02178713    -0.11200
C778        C  0.07613975  0.75079536  0.97718381     0.20400
C779        C  0.09037610  0.76101890  0.93318554    -0.13200
C780        C  0.11511841  0.78511389  0.93382388    -0.11500
C781        C  0.04770747  0.73027962  0.97667937     0.01300
C782        C  0.52113354  0.71518768  0.01329986    -0.31500
C783        C  0.14644676  0.82660604  0.97924304     0.02700
C784        C  0.15779904  0.85375130  0.98297118    -0.33200
H785        H  0.11895817  0.79892457  0.05691573     0.13800
H786        H  0.07523336  0.75643990  0.05577651     0.13600
H787        H  0.08158807  0.75124785  0.89859134     0.13400
H788        H  0.12544035  0.79397896  0.89973194     0.12500
C789        C  0.41752674  0.67322478  0.69776678     0.18800
C790        C  0.44197325  0.69077258  0.72354220    -0.10300
C791        C  0.44176560  0.69107054  0.77463098    -0.11200
C792        C  0.41710553  0.67382286  0.80020288     0.20400
C793        C  0.39271957  0.65611665  0.77444835    -0.13200
C794        C  0.39292909  0.65581936  0.72332677    -0.11500
C795        C  0.41683078  0.67437993  0.85277833     0.01300
C796        C  0.41643594  0.67456692  0.89681812    -0.31500
C797        C  0.41753980  0.67328876  0.64518297     0.02700
C798        C  0.41696093  0.67310236  0.60114376    -0.33200
H799        H  0.46111208  0.70429212  0.70415505     0.13800
H800        H  0.46075139  0.70479500  0.79417456     0.13600
H801        H  0.37354876  0.64265113  0.79384703     0.13400
H802        H  0.37390577  0.64214405  0.70376770     0.12500
C803        C  0.40763446  0.66791093  0.19781496     0.18800
C804        C  0.37794537  0.67378471  0.22298475    -0.10300
C805        C  0.37744988  0.67323309  0.27409572    -0.11200
C806        C  0.40663933  0.66678767  0.30026333     0.20400
C807        C  0.43635044  0.66102152  0.27508933    -0.13200
C808        C  0.43684847  0.66157113  0.22399238    -0.11500
C809        C  0.40626878  0.66643553  0.35286069     0.01300
C810        C  0.40699969  0.66674202  0.39690608    -0.31500
C811        C  0.40819775  0.66855753  0.14522589     0.02700
C812        C  0.40918420  0.66936851  0.10121074    -0.33200
H813        H  0.35523567  0.67880424  0.20312558     0.13800
H814        H  0.35436612  0.67785486  0.29317624     0.13600
H815        H  0.45910009  0.65614066  0.29495122     0.13400
H816        H  0.45996182  0.65708738  0.20492604     0.12500
C817        C  0.91227470  0.17042132  0.95042938     0.31800
C818        C  0.91910203  0.17681811  0.04709949     0.31800
C819        C  0.92502434  0.13888358  0.97639904    -0.04400
C820        C  0.93735172  0.19671642  0.96602206    -0.05200
C821        C  0.88056971  0.18178989  0.97697499    -0.05100
C822        C  0.92800945  0.14221899  0.02740977    -0.04400
C823        C  0.94128071  0.20003303  0.01705226    -0.05200
C824        C  0.88417008  0.18479285  0.02802787    -0.05100
C825        C  0.95588963  0.12415464  0.04093533    -0.30500
N826        N  0.97042639  0.11045248  0.00125059     0.16000
C827        C  0.95206267  0.11945362  0.96189922    -0.30500
H828        H  0.96043208  0.11660339  0.92456232     0.18000
C829        C  0.97391728  0.20865246  0.02459679    -0.29400
N830        N  0.98883639  0.21148020  0.98080120     0.14800
C831        C  0.96735530  0.20387278  0.94503055    -0.29400
C832        C  0.86599738  0.21259228  0.04177365    -0.29700
N833        N  0.85226852  0.22708089  0.00217064     0.15300
H834        H  0.86789469  0.22469724  0.07702762     0.17900
C835        C  0.86083076  0.20856002  0.96281252    -0.29700
H836        H  0.85787314  0.21693584  0.92550570     0.17900
H837        H  0.97411212  0.19994216  0.90718325     0.17900
H838        H  0.96779331  0.12574696  0.07635916     0.18000
H839        H  0.98674170  0.20920678  0.05936727     0.17900
C840        C  0.91575671  0.17313584  0.45053191     0.31800
C841        C  0.91070112  0.16887195  0.54760890     0.31800
C842        C  0.92557424  0.13902653  0.47148139    -0.04400
C843        C  0.93816667  0.19718981  0.47869481    -0.05200
C844        C  0.88107969  0.18157229  0.47055335    -0.05100
C845        C  0.92318803  0.13682862  0.52265737    -0.04400
C846        C  0.93532862  0.19497153  0.52994982    -0.05200
C847        C  0.87842272  0.17946339  0.52181461    -0.05100
C848        C  0.95040999  0.11784927  0.53765120    -0.30500
N849        N  0.96869700  0.10818646  0.49860722     0.16000
C850        C  0.95376346  0.12100708  0.45849781    -0.30500
H851        H  0.96543100  0.12192634  0.42291545     0.18000
C852        C  0.96571675  0.20295638  0.54918644    -0.29400
N853        N  0.98622774  0.21019155  0.51211310     0.14800
C854        C  0.97038702  0.20621211  0.46919744    -0.29400
C855        C  0.85885577  0.20640004  0.53600888    -0.29700
N856        N  0.84966135  0.22449313  0.49662821     0.15300
H857        H  0.85656264  0.21525601  0.57322053     0.17900
C858        C  0.86274893  0.20939656  0.45688825    -0.29700
H859        H  0.86408201  0.22103199  0.42132886     0.17900
H860        H  0.98238248  0.20621555  0.43382418     0.17900
H861        H  0.95896339  0.11581878  0.57504204     0.18000
H862        H  0.97341704  0.19992474  0.58683445     0.17900
C863        C  0.67727443  0.20437677  0.04570643     0.31800
C864        C  0.67086688  0.21097469  0.94885966     0.31800
C865        C  0.68438935  0.23940188  0.02639772    -0.04400
C866        C  0.70091555  0.18263855  0.01557880    -0.05200
C867        C  0.64297748  0.19496418  0.02574087    -0.05100
C868        C  0.68127857  0.24286318  0.97549531    -0.04400
C869        C  0.69762449  0.18659455  0.96450718    -0.05200
C870        C  0.63961334  0.19796009  0.97501256    -0.05100
C871        C  0.70612825  0.26481371  0.96135864    -0.30500
N872        N  0.72346165  0.27513261  0.00096914     0.16000
C873        C  0.71047046  0.25976622  0.04042562    -0.30500
H874        H  0.72260507  0.25890347  0.07572249     0.18000
C875        C  0.70527568  0.15684321  0.94313258    -0.29400
N876        N  0.71293191  0.13531736  0.97859433     0.14800
C877        C  0.70977785  0.15002497  0.02263179    -0.29400
C878        C  0.61789109  0.17278435  0.96075250    -0.29700
N879        N  0.60708312  0.15583585  0.00051706     0.15300
H880        H  0.61368192  0.16484941  0.92345773     0.17900
C881        C  0.62281283  0.16877467  0.03992744    -0.29700
H882        H  0.62330853  0.15709486  0.07548855     0.17900
H883        H  0.71003946  0.13699150  0.05716045     0.17900
H884        H  0.71422383  0.26864424  0.92410819     0.18000
H885        H  0.70128667  0.15012829  0.90522819     0.17900
C886        C  0.66948897  0.20649805  0.44924445     0.31800
C887        C  0.66724700  0.20985685  0.54672164     0.31800
C888        C  0.63547358  0.19764041  0.47132533    -0.04400
C889        C  0.69289311  0.18239296  0.47522430    -0.05200
C890        C  0.67946582  0.24038127  0.47080251    -0.05100
C891        C  0.63430479  0.19932157  0.52262590    -0.04400
C892        C  0.69182688  0.18448766  0.52678533    -0.05200
C893        C  0.67813294  0.24213313  0.52194113    -0.05100
C894        C  0.61347121  0.17361358  0.53741171    -0.30500
N895        N  0.60166941  0.15685441  0.49805721     0.16000
C896        C  0.61517058  0.17111729  0.45792450    -0.30500
H897        H  0.61462271  0.15991076  0.42196375     0.18000
C898        C  0.69757765  0.15319898  0.54436776    -0.29400
N899        N  0.70208422  0.13269246  0.50631752     0.14800
C900        C  0.69884696  0.14956230  0.46421697    -0.29400
C901        C  0.70403032  0.26278977  0.53637724    -0.29700
N902        N  0.72072426  0.27390838  0.49679497     0.15300
H903        H  0.71307242  0.26524693  0.57347063     0.17900
C904        C  0.70621112  0.26011745  0.45692185    -0.29700
H905        H  0.71728283  0.26015551  0.42090944     0.17900
H906        H  0.69759300  0.13822121  0.42835900     0.17900
H907        H  0.61137456  0.16469532  0.57456444     0.18000
H908        H  0.69511175  0.14523194  0.58195547     0.17900
C909        C  0.96120497  0.42026746  0.95337249     0.31800
C910        C  0.95397253  0.42585965  0.05009310     0.31800
C911        C  0.99252100  0.43209399  0.98042664    -0.04400
C912        C  0.93529291  0.44565413  0.96915130    -0.05200
C913        C  0.94923004  0.38818632  0.97864421    -0.05100
C914        C  0.98870473  0.43500859  0.03138999    -0.04400
C915        C  0.93116063  0.44848694  0.02024222    -0.05200
C916        C  0.94599597  0.39108622  0.02977983    -0.05100
C917        C  0.00636086  0.46324295  0.04517449    -0.30500
N918        N  0.52034348  0.47860867  0.99908993     0.16000
C919        C  0.01213164  0.45888938  0.96633778    -0.30500
H920        H  0.50601558  0.47443564  0.92378413     0.18000
C921        C  0.89809627  0.45523845  0.02776291    -0.29400
N922        N  0.88298469  0.45727138  0.98400506     0.14800
C923        C  0.90486305  0.45118889  0.94824783    -0.29400
C924        C  0.91824820  0.37250233  0.04250099    -0.29700
N925        N  0.90395778  0.35913229  0.00229416     0.15300
H926        H  0.90607212  0.37376078  0.07770189     0.17900
C927        C  0.92251114  0.36851076  0.96342232    -0.29700
H928        H  0.91427724  0.36602150  0.92593312     0.17900
H929        H  0.89831386  0.44722773  0.91028769     0.17900
H930        H  0.51341335  0.47042839  0.07596299     0.15600
H931        H  0.88530766  0.45508546  0.06252273     0.17900
C932        C  0.95185909  0.42366784  0.45347214     0.31800
C933        C  0.95999598  0.41772564  0.55007098     0.31800
C934        C  0.98686134  0.43227438  0.47155189    -0.04400
C935        C  0.92968900  0.44645779  0.48423716    -0.05200
C936        C  0.94395525  0.38892477  0.47335666    -0.05100
C937        C  0.99115981  0.42947989  0.52248410    -0.04400
C938        C  0.93428622  0.44340642  0.53506837    -0.05200
C939        C  0.94740507  0.38582029  0.52441377    -0.05100
C940        C  0.01092269  0.45642722  0.53601606    -0.30500
N941        N  0.52052659  0.47650091  0.50374642     0.16000
C942        C  0.00463382  0.46016632  0.45719669    -0.30500
H943        H  0.51340767  0.46678794  0.42726072     0.18000
C944        C  0.90456456  0.45063057  0.55693060    -0.29400
N945        N  0.88265827  0.45817498  0.52173429     0.14800
C946        C  0.89700559  0.45506889  0.47753259    -0.29400
C947        C  0.92060345  0.36611250  0.53924480    -0.29700
N948        N  0.90215091  0.35668071  0.50006555     0.15300
H949        H  0.91235908  0.36346162  0.57665719     0.17900
C950        C  0.91638942  0.37027276  0.46017922    -0.29700
H951        H  0.90427246  0.37158170  0.42490574     0.17900
H952        H  0.88384973  0.45596912  0.44305090     0.17900
H953        H  0.50628987  0.47356925  0.57920831     0.18000
H954        H  0.89840487  0.44733627  0.59510364     0.17900
C955        C  0.69826840  0.45659491  0.95180680     0.31800
C956        C  0.70244916  0.46108430  0.04907472     0.31800
C957        C  0.68996634  0.49105865  0.97260131    -0.04400
C958        C  0.67437118  0.43383441  0.97934035    -0.05200
C959        C  0.73230743  0.44707379  0.97288803    -0.05100
C960        C  0.69202296  0.49345749  0.02375465    -0.04400
C961        C  0.67655513  0.43639626  0.03073160    -0.05200
C962        C  0.73453343  0.44930688  0.02389517    -0.05100
C963        C  0.66650825  0.51469010  0.03790654    -0.30500
N964        N  0.64972244  0.02440840  0.00148766     0.16000
C965        C  0.66366716  0.51118749  0.95854906    -0.30500
H966        H  0.65228212  0.01017251  0.92586449     0.18000
C967        C  0.66934027  0.40568302  0.04935347    -0.29400
N968        N  0.66273456  0.38519480  0.01189264     0.14800
C969        C  0.66623727  0.40140379  0.96930132    -0.29400
C970        C  0.75584199  0.42393437  0.03838076    -0.29700
N971        N  0.76721936  0.40715012  0.99878798     0.15300
H972        H  0.75904634  0.41553353  0.07561830     0.17900
C973        C  0.75247928  0.42068104  0.95902924    -0.29700
H974        H  0.75254362  0.40928438  0.92317026     0.17900
H975        H  0.66666282  0.38957641  0.93373450     0.17900
H976        H  0.65775200  0.01619075  0.07830491     0.18000
H977        H  0.67265617  0.39781045  0.08685304     0.17900
C978        C  0.70475277  0.46165069  0.45133853     0.31800
C979        C  0.70076548  0.45794872  0.54855502     0.31800
C980        C  0.69371202  0.49405956  0.47619413    -0.04400
C981        C  0.67930487  0.43669354  0.46993886    -0.05200
C982        C  0.73708873  0.45037930  0.47653045    -0.05100
C983        C  0.69168323  0.49208644  0.52733556    -0.04400
C984        C  0.67722713  0.43455632  0.52133231    -0.05200
C985        C  0.73497102  0.44850911  0.52766603    -0.05100
C986        C  0.66475740  0.51168173  0.54089987    -0.30500
N987        N  0.64727984  0.02383323  0.50412740     0.16000
C988        C  0.66764298  0.51452940  0.46158990    -0.30500
H989        H  0.65698189  0.01674211  0.42748361     0.18000
C990        C  0.66942191  0.40214859  0.53181624    -0.29400
N991        N  0.66602527  0.38553312  0.48941956     0.14800
C992        C  0.67239726  0.40574563  0.45170613    -0.29400
C993        C  0.75439567  0.42145716  0.54144818    -0.29700
N994        N  0.76828075  0.40697588  0.50168166     0.15300
H995        H  0.75402763  0.41014297  0.57726572     0.17900
C996        C  0.75757265  0.42419415  0.46218398    -0.29700
H997        H  0.76015930  0.41539832  0.42498070     0.17900
H998        H  0.67526265  0.39766568  0.41417109     0.17900
H999        H  0.64875215  0.00869594  0.57943535     0.18000
H1000       H  0.66951504  0.39073787  0.56759611     0.17900
O1001       O  0.54106414  0.02466442  0.96044076    -0.70000
O1002       O  0.58107581  0.11066185  0.96056201    -0.70200
O1003       O  0.60358404  0.04780941  0.96158003    -0.70100
O1004       O  0.51762386  0.08767499  0.95960194    -0.70100
O1005       O  0.51672497  0.08760531  0.03888560    -0.70100
O1006       O  0.60328392  0.04822535  0.04091449    -0.70100
O1007       O  0.58035017  0.11097871  0.03987524    -0.70000
O1008       O  0.54077553  0.02447577  0.03976172    -0.70200
V1009       V  0.56072612  0.06776783  0.96215916     1.35200
V1010       V  0.56015662  0.06793958  0.03833338     1.35200
C1011       C  0.53484669  0.00951877  0.99989565     0.79200
C1012       C  0.58856130  0.12503957  0.00026161     0.79300
C1013       C  0.61798700  0.04097006  0.00145031     0.79200
C1014       C  0.50230666  0.09430743  0.99885502     0.79100
O1015       O  0.53882634  0.02281019  0.46299093    -0.70000
O1016       O  0.57735060  0.10983214  0.46003582    -0.70200
O1017       O  0.60130970  0.04713263  0.46268136    -0.70100
O1018       O  0.51423599  0.08548323  0.46044011    -0.70100
O1019       O  0.51459003  0.08755687  0.53969270    -0.70100
O1020       O  0.60061644  0.04802079  0.54199065    -0.70100
O1021       O  0.57773011  0.11108952  0.53932044    -0.70000
O1022       O  0.53792674  0.02477909  0.54224822    -0.70200
V1023       V  0.55788692  0.06642506  0.46306314     1.35200
V1024       V  0.55769026  0.06790856  0.53920274     1.35200
C1025       C  0.53194934  0.00886902  0.50321078     0.79200
C1026       C  0.58476889  0.12505563  0.49917280     0.79300
C1027       C  0.61552289  0.04046922  0.50281745     0.79200
C1028       C  0.49947293  0.09292734  0.49986938     0.79100
O1029       O  0.76959077  0.29881919  0.96065356    -0.70000
O1030       O  0.85661712  0.33749295  0.96116280    -0.70200
O1031       O  0.83194122  0.27468821  0.96141075    -0.70100
O1032       O  0.79322754  0.36145515  0.96011585    -0.70100
O1033       O  0.79248741  0.36186929  0.03941479    -0.70100
O1034       O  0.83215412  0.27558710  0.04072197    -0.70100
O1035       O  0.85571286  0.33847143  0.04044636    -0.70000
O1036       O  0.76974584  0.29896387  0.03999745    -0.70200
V1037       V  0.81293626  0.31823281  0.96235712     1.35200
V1038       V  0.81261373  0.31879672  0.03853050     1.35200
C1039       C  0.75511471  0.29185421  0.00041043     0.79200
C1040       C  0.87110939  0.34442515  0.00110844     0.79300
C1041       C  0.83821341  0.26012332  0.00134763     0.79200
C1042       C  0.78520596  0.37601116  0.99949234     0.79100
O1043       O  0.76753368  0.29764303  0.45846625    -0.70000
O1044       O  0.85425040  0.33601186  0.46062322    -0.70200
O1045       O  0.82981868  0.27334891  0.45845497    -0.70100
O1046       O  0.79155315  0.36049786  0.46076518    -0.70100
O1047       O  0.79162452  0.35963619  0.54003724    -0.70100
O1048       O  0.82925221  0.27217030  0.53772287    -0.70100
O1049       O  0.85452454  0.33478752  0.53989593    -0.70000
O1050       O  0.76707856  0.29700355  0.53777343    -0.70200
V1051       V  0.81083710  0.31692779  0.46118468     1.35200
V1052       V  0.81066254  0.31598863  0.53731974     1.35200
C1053       C  0.75265934  0.29033516  0.49771987     0.79200
C1054       C  0.86934753  0.34183069  0.50039110     0.79300
C1055       C  0.83566543  0.25766945  0.49765596     0.79200
C1056       C  0.78459259  0.37481265  0.50079785     0.79100
C1057       C  0.69802492  0.45551847  0.69892273     0.18800
C1058       C  0.68474555  0.42817691  0.72376902    -0.10300
C1059       C  0.68422087  0.42778687  0.77489746    -0.11200
C1060       C  0.69697152  0.45473302  0.80144538     0.20400
C1061       C  0.71037047  0.48202003  0.77659861    -0.13200
C1062       C  0.71089506  0.48241588  0.72547566    -0.11500
C1063       C  0.69641049  0.45443946  0.85407536     0.01300
C1064       C  0.69659494  0.45488959  0.89814611    -0.31500
C1065       C  0.69843456  0.45599285  0.64628540     0.02700
C1066       C  0.69905980  0.45662238  0.60222923    -0.33200
H1067       H  0.67478334  0.40722551  0.70364011     0.13800
H1068       H  0.67386173  0.40652310  0.79369955     0.13600
H1069       H  0.72037267  0.50296679  0.79674078     0.13400
H1070       H  0.72128213  0.50366040  0.70667704     0.12500
C1071       C  0.70756156  0.46227389  0.19899543     0.18800
C1072       C  0.67945175  0.45208754  0.22506003    -0.10300
C1073       C  0.67984544  0.45216489  0.27612100    -0.11200
C1074       C  0.70835108  0.46241496  0.30135671     0.20400
C1075       C  0.73670764  0.47197109  0.27532037    -0.13200
C1076       C  0.73631285  0.47189293  0.22420073    -0.11500
C1077       C  0.70821707  0.46342930  0.35387609     0.01300
C1078       C  0.70706291  0.46356220  0.39785629    -0.31500
C1079       C  0.70662151  0.46321475  0.14649026     0.02700
C1080       C  0.70500003  0.46329936  0.10253290    -0.33200
H1081       H  0.65715821  0.44441858  0.20592500     0.13800
H1082       H  0.65785043  0.44455041  0.29590923     0.13600
H1083       H  0.75893885  0.47976108  0.29449272     0.13400
H1084       H  0.75824872  0.47962898  0.20437827     0.12500
C1085       C  0.96742635  0.41624118  0.80307614     0.18800
C1086       C  0.99716459  0.42038129  0.77717318    -0.10300
C1087       C  0.99707783  0.41980384  0.72592944    -0.11200
C1088       C  0.96725019  0.41507668  0.70031019     0.20400
C1089       C  0.93754386  0.41123364  0.72627903    -0.13200
C1090       C  0.93762921  0.41181052  0.77740308    -0.11500
C1091       C  0.96677153  0.41454855  0.64751603     0.01300
C1092       C  0.96461473  0.41495858  0.60345239    -0.31500
C1093       C  0.96717952  0.41669176  0.85585129     0.02700
C1094       C  0.96534554  0.41756318  0.89991175    -0.33200
H1095       H  0.02035668  0.42401040  0.79654077     0.13800
H1096       H  0.02020257  0.42301951  0.70634311     0.13600
H1097       H  0.91429381  0.40777451  0.70698038     0.13400
H1098       H  0.91445444  0.40876439  0.79692535     0.12500
C1099       C  0.94650776  0.42894040  0.30324233     0.18800
C1100       C  0.92246941  0.44683971  0.27721691    -0.10300
C1101       C  0.92304307  0.44721766  0.22597406    -0.11200
C1102       C  0.94766748  0.42970548  0.20050825     0.20400
C1103       C  0.97163157  0.41184546  0.22661716    -0.13200
C1104       C  0.97105677  0.41146794  0.27771475    -0.11500
C1105       C  0.94853366  0.42978250  0.14773196     0.01300
C1106       C  0.95050540  0.42865118  0.10368331    -0.31500
C1107       C  0.94633362  0.42836335  0.35599950     0.02700
C1108       C  0.94795224  0.42677897  0.40002616    -0.33200
H1109       H  0.90334660  0.46046722  0.29648126     0.13800
H1110       H  0.90434557  0.46111079  0.20627165     0.13600
H1111       H  0.99077956  0.39819008  0.20745281     0.13400
H1112       H  0.98978175  0.39754554  0.29733659     0.12500
C1113       C  0.79483496  0.00005069  0.52855628     0.18800
C1114       C  0.78619024  0.01224496  0.48255239    -0.10300
C1115       C  0.76049031  0.03487577  0.47821803    -0.11200
C1116       C  0.74356985  0.04532875  0.51993509     0.20400
C1117       C  0.75164425  0.03265508  0.56600128    -0.13200
C1118       C  0.77743479  0.00983717  0.57034737    -0.11500
C1119       C  0.72140303  0.07240097  0.51567178     0.01300
C1120       C  0.70976834  0.09933607  0.51061828    -0.31500
C1121       C  0.82403459  0.98068587  0.53238471     0.02700
C1122       C  0.84999674  0.46731523  0.52978897    -0.33200
H1123       H  0.79998801  0.00501040  0.45028233     0.13800
H1124       H  0.75458099  0.04510590  0.44268030     0.13600
H1125       H  0.73879655  0.04119178  0.59842157     0.13400
H1126       H  0.78445470  0.00070855  0.60607927     0.12500
C1127       C  0.74689059  0.04433944  0.96766927     0.18800
C1128       C  0.76016333  0.03507799  0.01272200    -0.10300
C1129       C  0.78369466  0.01013212  0.01481670    -0.11200
C1130       C  0.79374870  0.99439506  0.97186463     0.20400
C1131       C  0.77965192  0.00274277  0.92679388    -0.13200
C1132       C  0.75599574  0.02789173  0.92468161    -0.11500
C1133       C  0.82198934  0.97368110  0.97402344     0.01300
C1134       C  0.84963610  0.46384631  0.97665563    -0.31500
C1135       C  0.72829661  0.07402442  0.96587121     0.02700
C1136       C  0.71929698  0.10196220  0.97082901    -0.33200
H1137       H  0.75342954  0.04818158  0.04588528     0.13800
H1138       H  0.79500234  0.00400239  0.04958748     0.13600
H1139       H  0.78792365  0.99086761  0.89341698     0.13400
H1140       H  0.74604716  0.03549879  0.88967505     0.12500
C1141       C  0.66614601  0.21389606  0.69683121     0.18800
C1142       C  0.69382619  0.20241000  0.72277395    -0.10300
C1143       C  0.69384502  0.20307743  0.77385721    -0.11200
C1144       C  0.66619977  0.21525190  0.79919639     0.20400
C1145       C  0.63852336  0.22670847  0.77325961    -0.13200
C1146       C  0.63850598  0.22603857  0.72216887    -0.11500
C1147       C  0.66620979  0.21556198  0.85173740     0.01300
C1148       C  0.66740323  0.21453126  0.89569145    -0.31500
C1149       C  0.66602074  0.21305355  0.64430049     0.02700
C1150       C  0.66615624  0.21197894  0.60030696    -0.33200
H1151       H  0.71531340  0.19290905  0.70354428     0.13800
H1152       H  0.71533636  0.19405887  0.79357983     0.13600
H1153       H  0.61699110  0.23607303  0.79249787     0.13400
H1154       H  0.61696042  0.23492002  0.70244153     0.12500
C1155       C  0.67326575  0.20470072  0.29861165     0.18800
C1156       C  0.64584879  0.21392946  0.27012580    -0.10300
C1157       C  0.64786229  0.21302674  0.21902574    -0.11200
C1158       C  0.67729017  0.20288323  0.19610247     0.20400
C1159       C  0.70472374  0.19386593  0.22460548    -0.13200
C1160       C  0.70271172  0.19477121  0.27565248    -0.11500
C1161       C  0.67930201  0.20186308  0.14345851     0.01300
C1162       C  0.67972588  0.20194776  0.09932602    -0.31500
C1163       C  0.67132137  0.20524525  0.35127933     0.02700
C1164       C  0.67040287  0.20555760  0.39539853    -0.33200
H1165       H  0.62295371  0.22172878  0.28737789     0.13800
H1166       H  0.62649805  0.22017053  0.19741206     0.13600
H1167       H  0.72762883  0.18608505  0.20738956     0.13400
H1168       H  0.72409483  0.18764761  0.29722707     0.12500
C1169       C  0.62469187  0.29736426  0.48042746     0.18800
C1170       C  0.61484510  0.28377553  0.43564003    -0.10300
C1171       C  0.59036644  0.25939353  0.43469411    -0.11200
C1172       C  0.57606799  0.24892529  0.47854652     0.20400
C1173       C  0.58626122  0.26226844  0.52325663    -0.13200
C1174       C  0.61068567  0.28652363  0.52419969    -0.11500
C1175       C  0.54826674  0.22750417  0.47791693     0.01300
C1176       C  0.01948152  0.21801569  0.51738447    -0.31500
C1177       C  0.64585935  0.32534237  0.48154213     0.02700
C1178       C  0.65749751  0.35239785  0.48501780    -0.33200
H1179       H  0.62534282  0.29268045  0.40168636     0.13800
H1180       H  0.58199438  0.24940171  0.40000877     0.13600
H1181       H  0.57475513  0.25450072  0.55712331     0.13400
H1182       H  0.61795885  0.29750816  0.55878931     0.12500
C1183       C  0.62730531  0.29439697  0.01863797     0.18800
C1184       C  0.61898045  0.27864111  0.06239107    -0.10300
C1185       C  0.59562691  0.25318723  0.06188832    -0.11200
C1186       C  0.58099790  0.24379338  0.01761758     0.20400
C1187       C  0.59007295  0.25896882  0.97380506    -0.13200
C1188       C  0.61332838  0.28432881  0.97430689    -0.11500
C1189       C  0.55295026  0.22276982  0.01755418     0.01300
C1190       C  0.02204701  0.21877371  0.97359147    -0.31500
C1191       C  0.64637226  0.32382670  0.01938867     0.02700
C1192       C  0.65599233  0.35167682  0.01649040    -0.33200
H1193       H  0.62952084  0.28685550  0.09679359     0.13800
H1194       H  0.58807531  0.24176901  0.09591093     0.13600
H1195       H  0.57822952  0.25207244  0.93966545     0.13400
H1196       H  0.61945495  0.29693191  0.94056724     0.12500
C1197       C  0.90668985  0.16315055  0.69781962     0.18800
C1198       C  0.87739430  0.16977369  0.72358578    -0.10300
C1199       C  0.87743541  0.16976135  0.77473734    -0.11200
C1200       C  0.90677627  0.16311370  0.80044762     0.20400
C1201       C  0.93599255  0.15606635  0.77467751    -0.13200
C1202       C  0.93594910  0.15607864  0.72351942    -0.11500
C1203       C  0.90719815  0.16459103  0.85311254     0.01300
C1204       C  0.90856928  0.16678342  0.89707992    -0.31500
C1205       C  0.90696205  0.16451385  0.64516951     0.02700
C1206       C  0.90793161  0.16631644  0.60116835    -0.33200
H1207       H  0.85463272  0.17531762  0.70415301     0.13800
H1208       H  0.85471769  0.17531354  0.79420920     0.13600
H1209       H  0.95885604  0.15095847  0.79411230     0.13400
H1210       H  0.95877355  0.15095941  0.70403628     0.12500
C1211       C  0.92343026  0.18052664  0.19751103     0.18800
C1212       C  0.90278926  0.20227265  0.22348921    -0.10300
C1213       C  0.90181118  0.20118567  0.27460737    -0.11200
C1214       C  0.92144892  0.17833186  0.30013232     0.20400
C1215       C  0.94225915  0.15672180  0.27417043    -0.13200
C1216       C  0.94323706  0.15780841  0.22303504    -0.11500
C1217       C  0.91987013  0.17676372  0.35278904     0.01300
C1218       C  0.91815771  0.17527634  0.39681096    -0.31500
C1219       C  0.92338962  0.18074020  0.14476196     0.02700
C1220       C  0.92218222  0.17982149  0.10066872    -0.33200
H1221       H  0.88724529  0.21984462  0.20422376     0.13800
H1222       H  0.88557945  0.21798959  0.29419554     0.13600
H1223       H  0.95752784  0.13890146  0.29341919     0.13400
H1224       H  0.95919042  0.14075865  0.20340890     0.12500
C1225       C  0.91120847  0.67010857  0.94971608     0.31800
C1226       C  0.91653666  0.67522585  0.04680585     0.31800
C1227       C  0.92325921  0.63812936  0.97517905    -0.04400
C1228       C  0.93627971  0.69596902  0.96698882    -0.05200
C1229       C  0.87920453  0.68137628  0.97552801    -0.05100
C1230       C  0.92559111  0.64081349  0.02639752    -0.04400
C1231       C  0.93921590  0.69863849  0.01820740    -0.05200
C1232       C  0.88199073  0.68376340  0.02680962    -0.05100
C1233       C  0.95337036  0.62261546  0.04009523    -0.30500
N1234       N  0.96840721  0.60947172  0.00038861     0.16000
C1235       C  0.95042006  0.61883815  0.96087059    -0.30500
H1236       H  0.95923939  0.61651147  0.92368037     0.18000
C1237       C  0.97150712  0.70739415  0.02766025    -0.29400
N1238       N  0.98737567  0.71069275  0.98476048     0.14800
C1239       C  0.96677613  0.70333523  0.94770328    -0.29400
C1240       C  0.86414265  0.71179605  0.04041888    -0.29700
N1241       N  0.85144607  0.72693910  0.00060510     0.15300
H1242       H  0.86572581  0.72357056  0.07594717     0.17900
C1243       C  0.86015311  0.70857679  0.96122429    -0.29700
H1244       H  0.85798941  0.71737247  0.92400901     0.17900
H1245       H  0.97437905  0.70005319  0.91007190     0.17900
H1246       H  0.96489465  0.62382884  0.07580247     0.18000
H1247       H  0.98346965  0.70788584  0.06311456     0.17900
C1248       C  0.91707502  0.67472198  0.45004484     0.31800
C1249       C  0.90986902  0.66837337  0.54660804     0.31800
C1250       C  0.92469549  0.63967398  0.46942675    -0.04400
C1251       C  0.94018292  0.69683222  0.48043178    -0.05200
C1252       C  0.88247829  0.68419694  0.46903872    -0.05100
C1253       C  0.92140244  0.63635384  0.52045139    -0.04400
C1254       C  0.93616413  0.69353827  0.53143336    -0.05200
C1255       C  0.87869403  0.68103819  0.51993667    -0.05100
C1256       C  0.94790481  0.61626115  0.53514953    -0.30500
N1257       N  0.96645314  0.60704868  0.49610907     0.16000
C1258       C  0.95231694  0.62096030  0.45626215    -0.30500
H1259       H  0.96454674  0.62246953  0.42113448     0.18000
C1260       C  0.96667235  0.69886354  0.55231230    -0.29400
N1261       N  0.98841182  0.70543380  0.51655014     0.14800
C1262       C  0.97317757  0.70376453  0.47284780    -0.29400
C1263       C  0.85949345  0.70811621  0.53452310    -0.29700
N1264       N  0.85130173  0.72706173  0.49551129     0.15300
H1265       H  0.85639263  0.71615228  0.57199968     0.17900
C1266       C  0.86509669  0.71266537  0.45575679    -0.29700
H1267       H  0.86725777  0.72492819  0.42074317     0.17900
H1268       H  0.98580971  0.70428734  0.43797171     0.17900
H1269       H  0.95604876  0.61335285  0.57260000     0.18000
H1270       H  0.97329998  0.69480129  0.59018599     0.17900
C1271       C  0.67636133  0.70601356  0.04478843     0.31800
C1272       C  0.67065698  0.71204125  0.94774720     0.31800
C1273       C  0.68436549  0.74070648  0.02503788    -0.04400
C1274       C  0.69957059  0.68344450  0.01529336    -0.05200
C1275       C  0.64190830  0.69727323  0.02454969    -0.05100
C1276       C  0.68160578  0.74387194  0.97409674    -0.04400
C1277       C  0.69663333  0.68697961  0.96411536    -0.05200
C1278       C  0.63894189  0.69999665  0.97363064    -0.05100
C1279       C  0.70677264  0.76544513  0.95998466    -0.30500
N1280       N  0.72395645  0.77586213  0.99968499     0.16000
C1281       C  0.71062028  0.76081495  0.03917096    -0.30500
H1282       H  0.72250095  0.76008383  0.07465041     0.18000
C1283       C  0.70352904  0.65670336  0.94360654    -0.29400
N1284       N  0.71061596  0.63539899  0.97969111     0.14800
C1285       C  0.70766787  0.65072174  0.02327995    -0.29400
C1286       C  0.61727510  0.67482345  0.95923530    -0.29700
N1287       N  0.60628351  0.65796391  0.99888721     0.15300
H1288       H  0.61350553  0.66662441  0.92193182     0.17900
C1289       C  0.62159870  0.67113996  0.03849740    -0.29700
H1290       H  0.62192102  0.65951267  0.07409625     0.17900
H1291       H  0.70785583  0.63816975  0.05819998     0.17900
H1292       H  0.71508044  0.76902578  0.92276257     0.18000
H1293       H  0.69981160  0.64969948  0.90576804     0.17900
C1294       C  0.67202362  0.70767851  0.44876223     0.31800
C1295       C  0.66649232  0.71285514  0.54585742     0.31800
C1296       C  0.63739933  0.69882394  0.46871161    -0.04400
C1297       C  0.69492822  0.68453192  0.47750611    -0.05200
C1298       C  0.68085564  0.74204662  0.46963117    -0.05100
C1299       C  0.63454268  0.70144367  0.51976798    -0.04400
C1300       C  0.69205307  0.68756763  0.52876782    -0.05200
C1301       C  0.67803268  0.74471368  0.52062692    -0.05100
C1302       C  0.61355493  0.67577055  0.53414920    -0.30500
N1303       N  0.60324300  0.65809802  0.49476050     0.16000
C1304       C  0.61785492  0.67177351  0.45501729    -0.30500
H1305       H  0.61865162  0.65984173  0.41956908     0.18000
C1306       C  0.69852291  0.65700543  0.54830186    -0.29400
N1307       N  0.70531318  0.63603945  0.51156120     0.14800
C1308       C  0.70263784  0.65184656  0.46845090    -0.29400
C1309       C  0.70369488  0.76544523  0.53587949    -0.29700
N1310       N  0.72147975  0.77578115  0.49689188     0.15300
H1311       H  0.71178519  0.76845240  0.57335679     0.17900
C1312       C  0.70792099  0.76153335  0.45669400    -0.29700
H1313       H  0.71996570  0.76093867  0.42137175     0.17900
H1314       H  0.70302655  0.63974116  0.43310264     0.17900
H1315       H  0.61032216  0.66757994  0.57147096     0.18000
H1316       H  0.69504782  0.64968482  0.58600676     0.17900
C1317       C  0.96103486  0.92157710  0.95268179     0.31800
C1318       C  0.95493038  0.92584540  0.04965564     0.31800
C1319       C  0.99264215  0.93315264  0.97919009    -0.04400
C1320       C  0.93525282  0.94670503  0.96978837    -0.05200
C1321       C  0.94948371  0.88915526  0.97728985    -0.05100
C1322       C  0.98941755  0.93542417  0.03029216    -0.04400
C1323       C  0.93165837  0.94880396  0.02108190    -0.05200
C1324       C  0.94679163  0.89133635  0.02850563    -0.05100
C1325       C  0.00730948  0.96346788  0.04437104    -0.30500
N1326       N  0.52105432  0.97635676  0.99899538     0.16000
C1327       C  0.01218824  0.96005114  0.96530566    -0.30500
H1328       H  0.50468801  0.97449931  0.92448518     0.18000
C1329       C  0.89859361  0.95512614  0.02953561    -0.29400
N1330       N  0.88302711  0.95763401  0.98617543     0.14800
C1331       C  0.90458676  0.95231376  0.94976241    -0.29400
C1332       C  0.91922849  0.87245037  0.04123957    -0.29700
N1333       N  0.90463747  0.85949876  0.00095492     0.15300
H1334       H  0.90737972  0.87317469  0.07670987     0.17900
C1335       C  0.92275668  0.86952464  0.96200972    -0.29700
H1336       H  0.91417800  0.86751333  0.92462238     0.17900
H1337       H  0.89766704  0.94878460  0.91185571     0.17900
H1338       H  0.51649567  0.96544182  0.07551618     0.15600
H1339       H  0.88614618  0.95426197  0.06453132     0.17900
C1340       C  0.95335413  0.92512559  0.45364785     0.31800
C1341       C  0.96079907  0.91888298  0.55025702     0.31800
C1342       C  0.98835555  0.93338808  0.47233995    -0.04400
C1343       C  0.93123170  0.94816943  0.48417616    -0.05200
C1344       C  0.94482346  0.89047603  0.47336986    -0.05100
C1345       C  0.99227702  0.93042751  0.52332741    -0.04400
C1346       C  0.93543656  0.94489996  0.53505955    -0.05200
C1347       C  0.94816278  0.88721646  0.52436040    -0.05100
C1348       C  0.01211506  0.95721480  0.53740961    -0.30500
N1349       N  0.51735594  0.97601540  0.50470573     0.16000
C1350       C  0.00643091  0.96123948  0.45853518    -0.30500
H1351       H  0.51233632  0.96472417  0.42823086     0.18000
C1352       C  0.90571582  0.95261585  0.55660078    -0.29400
N1353       N  0.88418132  0.96075589  0.52114969     0.14800
C1354       C  0.89875085  0.95742253  0.47711744    -0.29400
C1355       C  0.92127792  0.86773549  0.53925810    -0.29700
N1356       N  0.90257148  0.85878968  0.50021050     0.15300
H1357       H  0.91314757  0.86499332  0.57671987     0.17900
C1358       C  0.91686140  0.87233696  0.46028861    -0.29700
H1359       H  0.90465186  0.87392438  0.42510860     0.17900
H1360       H  0.88578977  0.95848541  0.44246243     0.17900
H1361       H  0.50120977  0.97451016  0.57939703     0.18000
H1362       H  0.89922028  0.94914647  0.59458746     0.17900
C1363       C  0.69783853  0.95575430  0.95436890     0.31800
C1364       C  0.70314603  0.96007512  0.05168980     0.31800
C1365       C  0.68979953  0.99007704  0.97556820    -0.04400
C1366       C  0.67452271  0.93271235  0.98254787    -0.05200
C1367       C  0.73218884  0.94662571  0.97444007    -0.05100
C1368       C  0.69215150  0.99237698  0.02671087    -0.04400
C1369       C  0.67732484  0.93515965  0.03384823    -0.05200
C1370       C  0.73503515  0.94877721  0.02545990    -0.05100
C1371       C  0.66653500  0.01339431  0.04116328    -0.30500
N1372       N  0.64969945  0.52562276  0.99818963     0.16000
C1373       C  0.66366842  0.01026793  0.96171887    -0.30500
H1374       H  0.65230674  0.51095365  0.92269211     0.18000
C1375       C  0.67040908  0.90437972  0.05254596    -0.29400
N1376       N  0.66334855  0.88393469  0.01519033     0.14800
C1377       C  0.66632924  0.90026024  0.97258029    -0.29400
C1378       C  0.75692659  0.92376654  0.03912181    -0.29700
N1379       N  0.76803264  0.90734483  0.99903387     0.15300
H1380       H  0.76071941  0.91526038  0.07617443     0.17900
C1381       C  0.75257987  0.92068790  0.95977092    -0.29700
H1382       H  0.75231007  0.90936486  0.92386405     0.17900
H1383       H  0.66614000  0.88855207  0.93692662     0.17900
H1384       H  0.65774575  0.51768633  0.07502784     0.18000
H1385       H  0.67400193  0.89649210  0.08997003     0.17900
C1386       C  0.70295504  0.96124752  0.45425910     0.31800
C1387       C  0.69698765  0.95568443  0.55120647     0.31800
C1388       C  0.69071173  0.99283312  0.47984410    -0.04400
C1389       C  0.67784672  0.93530144  0.47074819    -0.05200
C1390       C  0.73500695  0.95051563  0.48060240    -0.05100
C1391       C  0.68775264  0.98994487  0.53074422    -0.04400
C1392       C  0.67470216  0.93216285  0.52193461    -0.05200
C1393       C  0.73190864  0.94760711  0.53158565    -0.05100
C1394       C  0.66073849  0.00934506  0.54406239    -0.30500
N1395       N  0.65042845  0.52541065  0.50098548     0.16000
C1396       C  0.66499108  0.01350877  0.46491592    -0.30500
H1397       H  0.65891766  0.51699793  0.42435624     0.18000
C1398       C  0.66792811  0.89926394  0.53070725    -0.29400
N1399       N  0.66622529  0.88331383  0.48754268     0.14800
C1400       C  0.67253210  0.90446756  0.45098949    -0.29400
C1401       C  0.75193737  0.92094575  0.54503765    -0.29700
N1402       N  0.76713697  0.90785182  0.50525521     0.15300
H1403       H  0.75115239  0.90879689  0.58025114     0.17900
C1404       C  0.75665608  0.92545105  0.46605096    -0.29700
H1405       H  0.76028993  0.91752413  0.42863749     0.17900
H1406       H  0.67643150  0.89722748  0.41330766     0.17900
H1407       H  0.65336719  0.51151492  0.57668910     0.18000
H1408       H  0.66753578  0.88720329  0.56600635     0.17900
O1409       O  0.54053502  0.52645201  0.95939460    -0.70000
O1410       O  0.58060269  0.61252617  0.95889333    -0.70200
O1411       O  0.60323595  0.54944185  0.95898906    -0.70100
O1412       O  0.51707218  0.58936187  0.95926712    -0.70100
O1413       O  0.51695757  0.58918133  0.03855463    -0.70100
O1414       O  0.60371590  0.54996834  0.03830442    -0.70100
O1415       O  0.58046670  0.61271721  0.03821564    -0.70000
O1416       O  0.54115659  0.52641216  0.03872661    -0.70200
V1417       V  0.56029658  0.56954479  0.96071069     1.35200
V1418       V  0.56049218  0.56968975  0.03688585     1.35200
C1419       C  0.53457587  0.51150750  0.99910581     0.79200
C1420       C  0.58819881  0.62692961  0.99857602     0.79300
C1421       C  0.61801638  0.54250021  0.99854977     0.79200
C1422       C  0.50199860  0.59566374  0.99887555     0.79100
O1423       O  0.54108179  0.52351596  0.46173204    -0.70000
O1424       O  0.57943862  0.61056176  0.45731496    -0.70200
O1425       O  0.60359778  0.54786775  0.46018700    -0.70100
O1426       O  0.51626293  0.58619405  0.45891953    -0.70100
O1427       O  0.51689912  0.58808887  0.53815351    -0.70100
O1428       O  0.60369581  0.54950027  0.53945532    -0.70100
O1429       O  0.57980784  0.61231959  0.53657558    -0.70000
O1430       O  0.54116650  0.52545124  0.54099531    -0.70200
V1431       V  0.56005146  0.56713369  0.46107958     1.35200
V1432       V  0.56035717  0.56887864  0.53718879     1.35200
C1433       C  0.53483638  0.50949206  0.50211816     0.79200
C1434       C  0.58670546  0.62610712  0.49623723     0.79300
C1435       C  0.61834910  0.54170422  0.50012366     0.79200
C1436       C  0.50156780  0.59355850  0.49848852     0.79100
O1437       O  0.77015138  0.79946040  0.95954915    -0.70000
O1438       O  0.85722184  0.83791450  0.95999451    -0.70200
O1439       O  0.83230536  0.77509695  0.96000950    -0.70100
O1440       O  0.79393596  0.86198499  0.95952414    -0.70100
O1441       O  0.79362488  0.86212786  0.03884595    -0.70100
O1442       O  0.83243186  0.77569869  0.03933350    -0.70100
O1443       O  0.85661460  0.83840796  0.03929442    -0.70000
O1444       O  0.77031347  0.79949541  0.03889614    -0.70200
V1445       V  0.81352448  0.81872793  0.96127891     1.35200
V1446       V  0.81335374  0.81901524  0.03746675     1.35200
C1447       C  0.75566157  0.79248124  0.99927634     0.79200
C1448       C  0.87184676  0.84464808  0.99990211     0.79300
C1449       C  0.83822069  0.76028299  0.99987834     0.79200
C1450       C  0.78615264  0.87636952  0.99913818     0.79100
O1451       O  0.76832074  0.79954672  0.45937171    -0.70000
O1452       O  0.85430552  0.83888944  0.46127493    -0.70200
O1453       O  0.83089211  0.77602823  0.45834710    -0.70100
O1454       O  0.79131025  0.86249900  0.46298396    -0.70100
O1455       O  0.79200696  0.86091808  0.54223871    -0.70100
O1456       O  0.83034204  0.77398216  0.53758539    -0.70100
O1457       O  0.85521081  0.83664828  0.54049554    -0.70000
O1458       O  0.76788111  0.79832262  0.53867284    -0.70200
V1459       V  0.81125557  0.81927634  0.46211926     1.35200
V1460       V  0.81142173  0.81757535  0.53823662     1.35200
C1461       C  0.75345743  0.79200320  0.49847696     0.79200
C1462       C  0.86970191  0.84418345  0.50087231     0.79300
C1463       C  0.83696921  0.76003882  0.49721060     0.79200
C1464       C  0.78432911  0.87624199  0.50344091     0.79100
C1465       C  0.69024729  0.95307441  0.70145787     0.18800
C1466       C  0.69641107  0.92372407  0.72728982    -0.10300
C1467       C  0.69678960  0.92393943  0.77842089    -0.11200
C1468       C  0.69100800  0.95349485  0.80410300     0.20400
C1469       C  0.68428961  0.98277696  0.77832090    -0.13200
C1470       C  0.68390632  0.98256281  0.72713345    -0.11500
C1471       C  0.69284096  0.95385786  0.85673489     0.01300
C1472       C  0.69500256  0.95423983  0.90073087    -0.31500
C1473       C  0.69162902  0.95312368  0.64877214     0.02700
C1474       C  0.69377498  0.95362733  0.60476648    -0.33200
H1475       H  0.70136994  0.90078976  0.70791036     0.13800
H1476       H  0.70200260  0.90115075  0.79791609     0.13600
H1477       H  0.67977248  0.00579692  0.79774142     0.13400
H1478       H  0.67912901  0.00543338  0.70760799     0.12500
C1479       C  0.70786452  0.96238648  0.20185773     0.18800
C1480       C  0.67798063  0.96563545  0.22751283    -0.10300
C1481       C  0.67802511  0.96618732  0.27858280    -0.11200
C1482       C  0.70795403  0.96349159  0.30434415     0.20400
C1483       C  0.73783863  0.95974503  0.27876170    -0.13200
C1484       C  0.73779862  0.95919461  0.22759461    -0.11500
C1485       C  0.70774053  0.96433750  0.35693076     0.01300
C1486       C  0.70620823  0.96408777  0.40091792    -0.31500
C1487       C  0.70761326  0.96251986  0.14922444     0.02700
C1488       C  0.70616552  0.96225375  0.10519744    -0.33200
H1489       H  0.65467796  0.96792823  0.20803075     0.13800
H1490       H  0.65475168  0.96885426  0.29797680     0.13600
H1491       H  0.76111315  0.95739463  0.29831969     0.13400
H1492       H  0.76103675  0.95647217  0.20815650     0.12500
C1493       C  0.96684480  0.91529545  0.80264445     0.18800
C1494       C  0.99218098  0.93117391  0.77654556    -0.10300
C1495       C  0.99238785  0.93014259  0.72542881    -0.11200
C1496       C  0.96725652  0.91322852  0.70010377     0.20400
C1497       C  0.94208477  0.89706330  0.72620669    -0.13200
C1498       C  0.94188162  0.89809250  0.77733696    -0.11500
C1499       C  0.96654217  0.91368139  0.64745139     0.01300
C1500       C  0.96485516  0.91539843  0.60350059    -0.31500
C1501       C  0.96604371  0.91721409  0.85523468     0.02700
C1502       C  0.96450479  0.91909073  0.89919459    -0.33200
H1503       H  0.01157370  0.94460876  0.79567743     0.13800
H1504       H  0.01188474  0.94285240  0.70566252     0.13600
H1505       H  0.92243373  0.88402974  0.70704901     0.13400
H1506       H  0.92212227  0.88577607  0.79709687     0.12500
C1507       C  0.94872272  0.92808458  0.30311748     0.18800
C1508       C  0.92237283  0.94204242  0.27672975    -0.10300
C1509       C  0.92280596  0.94183360  0.22550619    -0.11200
C1510       C  0.94959598  0.92767544  0.20032005     0.20400
C1511       C  0.97576176  0.91342901  0.22673755    -0.13200
C1512       C  0.97532788  0.91363927  0.27789538    -0.11500
C1513       C  0.95051148  0.92796621  0.14752953     0.01300
C1514       C  0.95213568  0.92766990  0.10341614    -0.31500
C1515       C  0.94868786  0.92856032  0.35592505     0.02700
C1516       C  0.94997443  0.92794105  0.40005605    -0.33200
H1517       H  0.90160028  0.95319610  0.29571844     0.13800
H1518       H  0.90237200  0.95284849  0.20557812     0.13600
H1519       H  0.99657871  0.90232240  0.20779547     0.13400
H1520       H  0.99581351  0.90266858  0.29778284     0.12500
C1521       C  0.79499838  0.50012661  0.53188111     0.18800
C1522       C  0.78635603  0.51335626  0.48651805    -0.10300
C1523       C  0.76187599  0.53737888  0.48369665    -0.11200
C1524       C  0.74616886  0.54813889  0.52626849     0.20400
C1525       C  0.75426149  0.53451288  0.57171237    -0.13200
C1526       C  0.77884557  0.51031229  0.57454158    -0.11500
C1527       C  0.72499911  0.57602304  0.52325755     0.01300
C1528       C  0.71356546  0.60298094  0.51771876    -0.31500
C1529       C  0.82310547  0.47917804  0.53421967     0.02700
C1530       C  0.85135697  0.96963432  0.52873010    -0.33200
H1531       H  0.79920838  0.50576729  0.45357997     0.13800
H1532       H  0.75590934  0.54830089  0.44862822     0.13600
H1533       H  0.74236051  0.54327467  0.60478157     0.13400
H1534       H  0.78592615  0.50036345  0.60976742     0.12500
C1535       C  0.74704787  0.54507952  0.96869918     0.18800
C1536       C  0.76059802  0.53500300  0.01320474    -0.10300
C1537       C  0.78417838  0.51002629  0.01400866    -0.11200
C1538       C  0.79404006  0.49509421  0.97031835     0.20400
C1539       C  0.77976511  0.50434369  0.92577198    -0.13200
C1540       C  0.75607064  0.52949950  0.92496102    -0.11500
C1541       C  0.82220809  0.47419502  0.97132976     0.01300
C1542       C  0.84952569  0.96371521  0.97956202    -0.31500
C1543       C  0.72774033  0.57440606  0.96819817     0.02700
C1544       C  0.71778365  0.60207686  0.97283498    -0.33200
H1545       H  0.75390180  0.54736971  0.04698377     0.13800
H1546       H  0.79560647  0.50318834  0.04840325     0.13600
H1547       H  0.78787310  0.49311870  0.89183024     0.13400
H1548       H  0.74588924  0.53768607  0.89038497     0.12500
C1549       C  0.66213260  0.71752870  0.69570335     0.18800
C1550       C  0.65430518  0.68854746  0.72145692    -0.10300
C1551       C  0.65514780  0.68848443  0.77253035    -0.11200
C1552       C  0.66382657  0.71740691  0.79809388     0.20400
C1553       C  0.67154035  0.74643497  0.77235507    -0.13200
C1554       C  0.67069677  0.74649540  0.72124693    -0.11500
C1555       C  0.66544369  0.71699656  0.85061294     0.01300
C1556       C  0.66739291  0.71552191  0.89450171    -0.31500
C1557       C  0.66229828  0.71719180  0.64314870     0.02700
C1558       C  0.66350590  0.71588845  0.59919876    -0.33200
H1559       H  0.64780747  0.66596707  0.70205859     0.13800
H1560       H  0.64926263  0.66587241  0.79205870     0.13600
H1561       H  0.67840413  0.76889799  0.79175242     0.13400
H1562       H  0.67694915  0.76899564  0.70167819     0.12500
C1563       C  0.67674369  0.70564479  0.29811414     0.18800
C1564       C  0.64968509  0.69319406  0.27150636    -0.10300
C1565       C  0.65055804  0.69261508  0.22035933    -0.11200
C1566       C  0.67850035  0.70447891  0.19538225     0.20400
C1567       C  0.70542494  0.71730391  0.22194319    -0.13200
C1568       C  0.70454902  0.71788271  0.27313661    -0.11500
C1569       C  0.67928961  0.70375536  0.14262338     0.01300
C1570       C  0.67883762  0.70384497  0.09847109    -0.31500
C1571       C  0.67593069  0.70571812  0.35089977     0.02700
C1572       C  0.67464405  0.70596664  0.39502868    -0.33200
H1573       H  0.62797276  0.68381593  0.29030067     0.13800
H1574       H  0.62949225  0.68284541  0.20030336     0.13600
H1575       H  0.72708370  0.72676016  0.20311700     0.13400
H1576       H  0.72557090  0.72773767  0.29320989     0.12500
C1577       C  0.62477854  0.79590881  0.47621005     0.18800
C1578       C  0.61402592  0.78245178  0.43179233    -0.10300
C1579       C  0.58841873  0.75923248  0.43165617    -0.11200
C1580       C  0.57400106  0.74979308  0.47594786     0.20400
C1581       C  0.58524859  0.76283369  0.52025523    -0.13200
C1582       C  0.61071347  0.78594652  0.52038893    -0.11500
C1583       C  0.54492490  0.73020783  0.47632026     0.01300
C1584       C  0.02154805  0.71309930  0.52371627    -0.31500
C1585       C  0.64685544  0.82315889  0.47678302     0.02700
C1586       C  0.65849487  0.85012572  0.48133249    -0.33200
H1587       H  0.62458491  0.79071990  0.39753165     0.13800
H1588       H  0.57918178  0.74953158  0.39727463     0.13600
H1589       H  0.57368039  0.75585507  0.55445202     0.13400
H1590       H  0.61876086  0.79679807  0.55469496     0.12500
C1591       C  0.62587166  0.79389514  0.02158378     0.18800
C1592       C  0.61568539  0.77892824  0.06510575    -0.10300
C1593       C  0.59137519  0.75435704  0.06366742    -0.11200
C1594       C  0.57766698  0.74502959  0.01870759     0.20400
C1595       C  0.58860941  0.75936152  0.97522676    -0.13200
C1596       C  0.61282655  0.78379764  0.97666215    -0.11500
C1597       C  0.54888036  0.72498920  0.01720078     0.01300
C1598       C  0.02046677  0.71908414  0.97965307    -0.31500
C1599       C  0.64571740  0.82286409  0.02284297     0.02700
C1600       C  0.65599264  0.85051387  0.01990705    -0.33200
H1601       H  0.62541552  0.78723006  0.09997692     0.13800
H1602       H  0.58233465  0.74369181  0.09743242     0.13600
H1603       H  0.57755287  0.75251166  0.94052040     0.13400
H1604       H  0.62041290  0.79575621  0.94304157     0.12500
C1605       C  0.90293847  0.66346375  0.69671694     0.18800
C1606       C  0.88963230  0.69054619  0.72227403    -0.10300
C1607       C  0.89022157  0.69110517  0.77343707    -0.11200
C1608       C  0.90413152  0.66458637  0.79943542     0.20400
C1609       C  0.91709843  0.63733020  0.77389331    -0.13200
C1610       C  0.91651141  0.63677098  0.72271658    -0.11500
C1611       C  0.90585809  0.66574938  0.85212710     0.01300
C1612       C  0.90794841  0.66731113  0.89612970    -0.31500
C1613       C  0.90382313  0.66371547  0.64397134     0.02700
C1614       C  0.90577329  0.66507684  0.59996393    -0.33200
H1615       H  0.87917712  0.71139346  0.70265089     0.13800
H1616       H  0.88016760  0.71235434  0.79268888     0.13600
H1617       H  0.92798030  0.61669886  0.79351105     0.13400
H1618       H  0.92699095  0.61574346  0.70344260     0.12500
C1619       C  0.92363784  0.67927064  0.19715913     0.18800
C1620       C  0.92209183  0.64928410  0.22292193    -0.10300
C1621       C  0.92242936  0.64932932  0.27405419    -0.11200
C1622       C  0.92432839  0.67936310  0.29987961     0.20400
C1623       C  0.92651407  0.70935534  0.27414968    -0.13200
C1624       C  0.92617767  0.70931021  0.22293111    -0.11500
C1625       C  0.92287643  0.67926197  0.35259770     0.01300
C1626       C  0.92061366  0.67791861  0.39657441    -0.31500
C1627       C  0.92164635  0.67908048  0.14447499     0.02700
C1628       C  0.91933313  0.67785049  0.10048098    -0.33200
H1629       H  0.92016666  0.62589496  0.20348679     0.13800
H1630       H  0.92073909  0.62597634  0.29345302     0.13600
H1631       H  0.92800510  0.73275132  0.29364104     0.13400
H1632       H  0.92743486  0.73266776  0.20348473     0.12500
loop_ 
_geom_bond_atom_site_label_1 
_geom_bond_atom_site_label_2 
_geom_bond_distance 
_geom_bond_site_symmetry_2 
_ccdc_geom_bond_type 
C1            C3   1.542       .  S
C1            C5   1.537       .  S
C1            C4   1.530       .  S
C1          C388   1.474       .  S
C2            C6   1.544       .  S
C2            C8   1.537       .  S
C2            C7   1.526       .  S
C2          C404   1.473       .  S
C3           C11   1.395       .  A
C3            C6   1.409   1_556  A
C4           C15   1.374       .  A
C4            C7   1.414   1_556  A
C5           C19   1.393       .  A
C5            C8   1.407   1_556  A
C6            C9   1.398       .  A
C7           C13   1.372       .  A
C8           C16   1.394       .  A
C9           N10   1.355   1_554  A
C9           H22   1.083       .  S
N10          C11   1.354       .  A
N10        C1014   1.452       .  S
C11          H12   1.083       .  S
C13          N14   1.341       .  A
C13          H23   1.083       .  S
N14          C15   1.344   1_554  A
N14         C374   1.382       .  S
C15          H21   1.083       .  S
C16          N17   1.353   1_554  A
C16          H18   1.083       .  S
N17          C19   1.353       .  A
N17         C225   1.448       .  S
C19          H20   1.083       .  S
C24          C26   1.545       .  S
C24          C28   1.540       .  S
C24          C27   1.523       .  S
C24         C402   1.474       .  S
C25          C29   1.537       .  S
C25          C31   1.534       .  S
C25          C30   1.531       .  S
C25         C390   1.473       .  S
C26          C34   1.399       .  A
C26          C29   1.410       .  A
C27          C38   1.371       .  A
C27          C30   1.410       .  A
C28          C42   1.395       .  A
C28          C31   1.409       .  A
C29          C32   1.389       .  A
C30          C36   1.374       .  A
C31          C39   1.391       .  A
C32          N33   1.351       .  A
C32          H45   1.083       .  S
N33          C34   1.356       .  A
N33        C1028   1.449       .  S
C34          H35   1.082       .  S
C36          N37   1.346       .  A
C36          H46   1.083       .  S
N37          C38   1.341       .  A
N37         C360   1.383       .  S
C38          H44   1.084       .  S
C39          N40   1.351       .  A
C39          H41   1.083       .  S
N40          C42   1.354       .  A
N40         C239   1.447       .  S
C42          H43   1.083       .  S
C47          C49   1.533       .  S
C47          C51   1.540       .  S
C47          C50   1.524       .  S
C47         C346   1.474       .  S
C48          C52   1.534       .  S
C48          C54   1.537       .  S
C48          C53   1.531       .  S
C48         C332   1.478       .  S
C49          C57   1.389       .  A
C49          C52   1.405   1_554  A
C50          C61   1.371       .  A
C50          C53   1.413   1_554  A
C51          C65   1.391       .  A
C51          C54   1.407   1_554  A
C52          C55   1.387       .  A
C53          C59   1.375       .  A
C54          C62   1.389       .  A
C55          N56   1.353       .  A
C55          H68   1.083       .  S
N56          C57   1.353   1_556  A
N56         C223   1.442       .  S
C57          H58   1.083       .  S
C59          N60   1.347   1_556  A
C59          H69   1.082       .  S
N60          C61   1.342       .  A
N60         C320   1.385       .  S
C61          H67   1.083       .  S
C62          N63   1.354       .  A
C62          H64   1.083       .  S
N63          C65   1.355   1_556  A
N63         C196   1.446       .  S
C65          H66   1.082       .  S
C70          C72   1.543       .  S
C70          C74   1.534       .  S
C70          C73   1.522       .  S
C70         C348   1.473       .  S
C71          C75   1.537       .  S
C71          C77   1.536       .  S
C71          C76   1.535       .  S
C71         C334   1.478       .  S
C72          C80   1.394       .  A
C72          C75   1.407       .  A
C73          C84   1.370       .  A
C73          C76   1.413       .  A
C74          C88   1.392       .  A
C74          C77   1.404       .  A
C75          C78   1.389       .  A
C76          C82   1.377       .  A
C77          C85   1.388       .  A
C78          N79   1.354       .  A
C78          H91   1.083       .  S
N79          C80   1.356       .  A
N79         C210   1.448       .  S
C80          H81   1.083       .  S
C82          N83   1.348       .  A
C82          H92   1.083       .  S
N83          C84   1.340       .  A
N83         C304   1.385       .  S
C84          H90   1.083       .  S
C85          N86   1.354       .  A
C85          H87   1.083       .  S
N86          C88   1.354       .  A
N86         C237   1.445       .  S
C88          H89   1.082       .  S
C93          C95   1.533       .  S
C93          C97   1.535       .  S
C93          C96   1.534       .  S
C93         C278   1.473       .  S
C94          C98   1.537       .  S
C94         C100   1.544       .  S
C94          C99   1.524       .  S
C94         C290   1.473       .  S
C95         C103   1.388       .  A
C95          C98   1.408   1_556  A
C96         C107   1.376       .  A
C96          C99   1.411   1_556  A
C97         C111   1.388       .  A
C97         C100   1.409   1_556  A
C98         C101   1.393       .  A
C99         C105   1.371       .  A
C100        C108   1.397       .  A
C101        N918   1.353   1_554  A
C101        H930   1.083       .  S
N102        C917   1.352       .  A
N102        C919   1.353   1_554  A
N102        C603   1.446       .  S
C103        N918   1.350       .  A
C103        H920   1.083       .  S
H104        C919   1.083       .  S
C105        N106   1.342       .  A
C105        H115   1.083       .  S
N106        C107   1.347   1_554  A
N106        C318   1.386       .  S
C107        H113   1.083       .  S
C108        N109   1.355       .  A
C108        H110   1.083       .  S
N109        C111   1.351   1_554  A
N109        C224   1.447       .  S
C111        H112   1.083       .  S
H114        C917   1.083       .  S
C116        C118   1.537       .  S
C116        C120   1.542       .  S
C116        C119   1.526       .  S
C116        C292   1.472       .  S
C117        C121   1.538       .  S
C117        C123   1.541       .  S
C117        C122   1.531       .  S
C117        C276   1.473       .  S
C118        C126   1.394       .  A
C118        C121   1.407       .  A
C119        C130   1.371       .  A
C119        C122   1.410       .  A
C120        C134   1.397       .  A
C120        C123   1.409       .  A
C121        C124   1.394       .  A
C122        C128   1.376       .  A
C123        C131   1.393       .  A
C124        N941   1.353       .  A
C124        H953   1.083       .  S
N125        C940   1.354       .  A
N125        C942   1.350       .  A
N125        C617   1.445       .  S
C126        N941   1.353       .  A
C126        H943   1.083       .  S
H127        C942   1.083       .  S
C128        N129   1.347       .  A
C128        H138   1.083       .  S
N129        C130   1.343       .  A
N129        C306   1.386       .  S
C130        H136   1.083       .  S
C131        N132   1.354       .  A
C131        H133   1.083       .  S
N132        C134   1.354       .  A
N132        C238   1.451       .  S
C134        H135   1.083       .  S
H137        C940   1.083       .  S
C139        C141   1.535       .  S
C139        C143   1.543       .  S
C139        C142   1.524       .  S
C139        C248   1.472       .  S
C140        C144   1.537       .  S
C140        C146   1.538       .  S
C140        C145   1.531       .  S
C140        C264   1.475       .  S
C141        C149   1.392       .  A
C141        C144   1.404   1_556  A
C142        C153   1.370       .  A
C142        C145   1.414   1_556  A
C143        C157   1.395       .  A
C143        C146   1.405   1_556  A
C144        C147   1.390       .  A
C145        C151   1.375       .  A
C146        C154   1.391       .  A
C147        N556   1.354       .  A
C147        H568   1.083       .  S
N148        C555   1.354       .  A
N148        C557   1.354   1_554  A
N148        C197   1.447       .  S
C149        N556   1.354   1_556  A
C149        H558   1.083       .  S
H150        C557   1.083       .  S
C151        N152   1.346   1_554  A
C151        H161   1.083       .  S
N152        C153   1.340       .  A
N152        C376   1.384       .  S
C153        H159   1.083       .  S
C154        N155   1.354       .  A
C154        H156   1.083       .  S
N155        C157   1.357   1_554  A
N155        C226   1.450       .  S
C157        H158   1.083       .  S
H160        C555   1.083       .  S
C162        C164   1.536       .  S
C162        C166   1.538       .  S
C162        C165   1.531       .  S
C162        C262   1.475       .  S
C163        C167   1.537       .  S
C163        C169   1.543       .  S
C163        C168   1.524       .  S
C163        C250   1.472       .  S
C164        C172   1.390       .  A
C164        C167   1.404       .  A
C165        C176   1.375       .  A
C165        C168   1.414       .  A
C166        C180   1.391       .  A
C166        C169   1.406       .  A
C167        C170   1.393       .  A
C168        C174   1.371       .  A
C169        C177   1.396       .  A
C170        N579   1.355       .  A
C170        H591   1.083       .  S
N171        C578   1.355       .  A
N171        C580   1.354       .  A
N171        C211   1.449       .  S
C172        N579   1.355       .  A
C172        H581   1.083       .  S
H173        C580   1.083       .  S
C174        N175   1.341       .  A
C174        H184   1.083       .  S
N175        C176   1.346       .  A
N175        C362   1.384       .  S
C176        H182   1.083       .  S
C177        N178   1.357       .  A
C177        H179   1.083       .  S
N178        C180   1.354       .  A
N178        C240   1.450       .  S
C180        H181   1.083       .  S
H183        C578   1.083       .  S
O185        V193   1.911       .  S
O185        C195   1.267   1_556  A
O186        V193   1.911       .  S
O186        C196   1.267       .  A
O187        V193   1.916       .  S
O187        C197   1.269   1_556  A
O188        V193   1.923       .  S
O188        C198   1.269   1_556  A
O189        V194   1.911       .  S
O189        C198   1.268       .  A
O190        V194   1.912       .  S
O190        C197   1.267       .  A
O191        V194   1.914       .  S
O191        C196   1.267   1_554  A
O192        V194   1.913       .  S
O192        C195   1.268       .  A
V193        V194   2.085   1_556  T
C195        N510   1.446   1_545  S
C198        N826   1.451   1_455  S
O199        V207   1.913       .  S
O199        C209   1.268       .  A
O200        V207   1.916       .  S
O200        C210   1.268       .  A
O201        V207   1.911       .  S
O201        C211   1.267       .  A
O202        V207   1.915       .  S
O202        C212   1.268       .  A
O203        V208   1.928       .  S
O203        C212   1.271       .  A
O204        V208   1.921       .  S
O204        C211   1.269       .  A
O205        V208   1.912       .  S
O205        C210   1.268       .  A
O206        V208   1.913       .  S
O206        C209   1.267       .  A
V207        V208   2.085       .  T
C209        N533   1.447   1_545  S
C212        N849   1.455   1_455  S
O213        V221   1.906       .  S
O213        C223   1.266       .  A
O214        V221   1.908       .  S
O214        C224   1.267   1_556  A
O215        V221   1.914       .  S
O215        C225   1.268       .  A
O216        V221   1.917       .  S
O216        C226   1.268   1_556  A
O217        V222   1.916       .  S
O217        C226   1.269       .  A
O218        V222   1.916       .  S
O218        C225   1.268   1_554  A
O219        V222   1.918       .  S
O219        C224   1.268       .  A
O220        V222   1.910       .  S
O220        C223   1.267   1_554  A
V221        V222   2.086   1_556  T
O227        V235   1.917       .  S
O227        C237   1.268       .  A
O228        V235   1.924       .  S
O228        C238   1.270       .  A
O229        V235   1.911       .  S
O229        C239   1.266       .  A
O230        V235   1.913       .  S
O230        C240   1.268       .  A
O231        V236   1.920       .  S
O231        C240   1.269       .  A
O232        V236   1.915       .  S
O232        C239   1.269       .  A
O233        V236   1.911       .  S
O233        C238   1.267       .  A
O234        V236   1.906       .  S
O234        C237   1.266       .  A
V235        V236   2.085       .  T
C241        C242   1.402       .  A
C241        C246   1.401       .  A
C241        C249   1.441       .  S
C242        C243   1.400       .  A
C242        H251   1.083       .  S
C243        C244   1.402       .  A
C243        H252   1.083       .  S
C244        C245   1.401       .  A
C244        C247   1.441       .  S
C245        C246   1.399       .  A
C245        H253   1.084       .  S
C246        H254   1.083       .  S
C247        C248   1.206       .  T
C249        C250   1.206       .  T
C255        C256   1.403       .  A
C255        C260   1.402       .  A
C255        C263   1.444       .  S
C256        C257   1.402       .  A
C256        H265   1.083       .  S
C257        C258   1.402       .  A
C257        H266   1.084       .  S
C258        C259   1.402       .  A
C258        C261   1.444       .  S
C259        C260   1.400       .  A
C259        H267   1.084       .  S
C260        H268   1.083       .  S
C261        C262   1.208       .  T
C263        C264   1.208       .  T
C269        C270   1.402       .  A
C269        C274   1.401       .  A
C269        C277   1.441       .  S
C270        C271   1.400       .  A
C270        H279   1.083       .  S
C271        C272   1.402       .  A
C271        H280   1.084       .  S
C272        C273   1.401       .  A
C272        C275   1.441       .  S
C273        C274   1.399       .  A
C273        H281   1.084       .  S
C274        H282   1.083       .  S
C275        C276   1.207       .  T
C277        C278   1.207       .  T
C283        C284   1.401       .  A
C283        C288   1.402       .  A
C283        C291   1.440       .  S
C284        C285   1.399       .  A
C284        H293   1.084       .  S
C285        C286   1.401       .  A
C285        H294   1.084       .  S
C286        C287   1.402       .  A
C286        C289   1.441       .  S
C287        C288   1.400       .  A
C287        H295   1.083       .  S
C288        H296   1.084       .  S
C289        C290   1.207       .  T
C291        C292   1.206       .  T
C297        C298   1.400   1_565  A
C297        C302   1.396   1_565  A
C297        C305   1.415       .  S
C298        C299   1.394       .  A
C298        H307   1.084   1_545  S
C299        C300   1.399       .  A
C299        H308   1.083       .  S
C300        C301   1.396       .  A
C300        C303   1.415       .  S
C301        C302   1.385       .  A
C301        H309   1.084       .  S
C302        H310   1.084       .  S
C303        C304   1.191       .  T
C305        C714   1.191       .  T
C306        C713   1.193       .  T
C311        C312   1.400       .  A
C311        C316   1.396   1_554  A
C311        C319   1.415       .  S
C312        C313   1.393       .  A
C312        H321   1.083       .  S
C313        C314   1.398   1_545  A
C313        H322   1.083   1_545  S
C314        C315   1.396   1_564  A
C314        C317   1.413       .  S
C315        C316   1.385       .  A
C315        H323   1.084       .  S
C316        H324   1.084       .  S
C317        C726   1.190       .  T
C318        C725   1.192       .  T
C319        C320   1.191       .  T
C325        C326   1.403       .  A
C325        C330   1.403       .  A
C325        C333   1.447       .  S
C326        C327   1.402       .  A
C326        H335   1.083       .  S
C327        C328   1.402       .  A
C327        H336   1.084       .  S
C328        C329   1.403       .  A
C328        C331   1.447       .  S
C329        C330   1.402       .  A
C329        H337   1.083       .  S
C330        H338   1.084       .  S
C331        C332   1.210       .  T
C333        C334   1.210       .  T
C339        C340   1.402       .  A
C339        C344   1.401       .  A
C339        C347   1.442       .  S
C340        C341   1.401       .  A
C340        H349   1.083       .  S
C341        C342   1.402       .  A
C341        H350   1.083       .  S
C342        C343   1.401       .  A
C342        C345   1.442       .  S
C343        C344   1.399       .  A
C343        H351   1.083       .  S
C344        H352   1.084       .  S
C345        C346   1.207       .  T
C347        C348   1.207       .  T
C353        C354   1.397       .  A
C353        C358   1.398       .  A
C353        C361   1.414       .  S
C354        C355   1.386       .  A
C354        H363   1.084       .  S
C355        C356   1.396       .  A
C355        H364   1.084       .  S
C356        C357   1.398       .  A
C356        C359   1.413       .  S
C357        C358   1.392       .  A
C357        H365   1.084       .  S
C358        H366   1.083       .  S
C359       C1176   1.190       .  T
C360       C1175   1.190       .  T
C361        C362   1.190       .  T
C367        C368   1.396   1_556  A
C367        C372   1.399       .  A
C367        C375   1.414       .  S
C368        C369   1.385       .  A
C368        H377   1.084       .  S
C369        C370   1.396   1_554  A
C369        H378   1.084       .  S
C370        C371   1.399       .  A
C370        C373   1.413       .  S
C371        C372   1.393       .  A
C371        H379   1.083       .  S
C372        H380   1.083       .  S
C373       C1190   1.190       .  T
C374       C1189   1.189       .  T
C375        C376   1.190       .  T
C381        C382   1.402       .  A
C381        C386   1.401       .  A
C381        C389   1.441       .  S
C382        C383   1.400       .  A
C382        H391   1.083       .  S
C383        C384   1.402       .  A
C383        H392   1.084       .  S
C384        C385   1.402       .  A
C384        C387   1.441       .  S
C385        C386   1.400       .  A
C385        H393   1.083       .  S
C386        H394   1.083       .  S
C387        C388   1.207       .  T
C389        C390   1.207       .  T
C395        C396   1.402       .  A
C395        C400   1.402       .  A
C395        C403   1.441       .  S
C396        C397   1.400       .  A
C396        H405   1.084       .  S
C397        C398   1.402       .  A
C397        H406   1.083       .  S
C398        C399   1.402       .  A
C398        C401   1.442       .  S
C399        C400   1.400       .  A
C399        H407   1.084       .  S
C400        H408   1.083       .  S
C401        C402   1.207       .  T
C403        C404   1.207       .  T
C409        C411   1.539       .  S
C409        C413   1.536       .  S
C409        C412   1.532       .  S
C409        C796   1.471       .  S
C410        C414   1.545       .  S
C410        C416   1.539       .  S
C410        C415   1.525       .  S
C410        C812   1.472       .  S
C411        C419   1.394       .  A
C411        C414   1.408   1_556  A
C412        C423   1.375       .  A
C412        C415   1.414   1_556  A
C413        C427   1.394       .  A
C413        C416   1.408   1_556  A
C414        C417   1.400       .  A
C415        C421   1.370       .  A
C416        C424   1.396       .  A
C417        N418   1.356   1_554  A
C417        H430   1.083       .  S
N418        C419   1.353       .  A
N418       C1422   1.454       .  S
C419        H420   1.083       .  S
C421        N422   1.340       .  A
C421        H431   1.083       .  S
N422        C423   1.345   1_554  A
N422        C782   1.383       .  S
C423        H429   1.083       .  S
C424        N425   1.354   1_554  A
C424        H426   1.083       .  S
N425        C427   1.352       .  A
N425        C633   1.450       .  S
C427        H428   1.083       .  S
C432        C434   1.546       .  S
C432        C436   1.540       .  S
C432        C435   1.522       .  S
C432        C810   1.472       .  S
C433        C437   1.538       .  S
C433        C439   1.537       .  S
C433        C438   1.532       .  S
C433        C798   1.472       .  S
C434        C442   1.401       .  A
C434        C437   1.407       .  A
C435        C446   1.368       .  A
C435        C438   1.410       .  A
C436        C450   1.396       .  A
C436        C439   1.410       .  A
C437        C440   1.392       .  A
C438        C444   1.374       .  A
C439        C447   1.394       .  A
C440        N441   1.353       .  A
C440        H453   1.083       .  S
N441        C442   1.357       .  A
N441       C1436   1.454       .  S
C442        H443   1.083       .  S
C444        N445   1.347       .  A
C444        H454   1.083       .  S
N445        C446   1.341       .  A
N445        C768   1.383       .  S
C446        H452   1.083       .  S
C447        N448   1.351       .  A
C447        H449   1.083       .  S
N448        C450   1.354       .  A
N448        C647   1.449       .  S
C450        H451   1.083       .  S
C455        C457   1.534       .  S
C455        C459   1.542       .  S
C455        C458   1.523       .  S
C455        C754   1.476       .  S
C456        C460   1.537       .  S
C456        C462   1.539       .  S
C456        C461   1.534       .  S
C456        C740   1.481       .  S
C457        C465   1.392       .  A
C457        C460   1.406   1_554  A
C458        C469   1.371       .  A
C458        C461   1.414   1_554  A
C459        C473   1.394       .  A
C459        C462   1.407   1_554  A
C460        C463   1.389       .  A
C461        C467   1.375       .  A
C462        C470   1.391       .  A
C463        N464   1.354       .  A
C463        H476   1.083       .  S
N464        C465   1.353   1_556  A
N464        C631   1.445       .  S
C465        H466   1.083       .  S
C467        N468   1.347   1_556  A
C467        H477   1.083       .  S
N468        C469   1.341       .  A
N468        C728   1.386       .  S
C469        H475   1.083       .  S
C470        N471   1.354       .  A
C470        H472   1.083       .  S
N471        C473   1.356   1_556  A
N471        C604   1.449       .  S
C473        H474   1.082       .  S
C478        C480   1.543       .  S
C478        C482   1.535       .  S
C478        C481   1.524       .  S
C478        C756   1.475       .  S
C479        C483   1.536       .  S
C479        C485   1.534       .  S
C479        C484   1.535       .  S
C479        C742   1.481       .  S
C480        C488   1.395       .  A
C480        C483   1.407       .  A
C481        C492   1.372       .  A
C481        C484   1.416       .  A
C482        C496   1.393       .  A
C482        C485   1.404       .  A
C483        C486   1.388       .  A
C484        C490   1.375       .  A
C485        C493   1.387       .  A
C486        N487   1.353       .  A
C486        H499   1.083       .  S
N487        C488   1.357       .  A
N487        C618   1.448       .  S
C488        H489   1.082       .  S
C490        N491   1.347       .  A
C490        H500   1.083       .  S
N491        C492   1.341       .  A
N491        C712   1.386       .  S
C492        H498   1.083       .  S
C493        N494   1.352       .  A
C493        H495   1.083       .  S
N494        C496   1.354       .  A
N494        C645   1.444       .  S
C496        H497   1.082       .  S
C501        C503   1.534       .  S
C501        C505   1.537       .  S
C501        C504   1.535       .  S
C501        C686   1.482       .  S
C502        C506   1.541       .  S
C502        C508   1.548       .  S
C502        C507   1.522       .  S
C502        C698   1.480       .  S
C503        C511   1.388       .  A
C503        C506   1.411   1_556  A
C504        C515   1.374       .  A
C504        C507   1.413   1_556  A
C505        C519   1.390       .  A
C505        C508   1.409   1_556  A
C506        C509   1.397       .  A
C507        C513   1.370       .  A
C508        C516   1.401       .  A
C509       N1326   1.354   1_554  A
C509       H1338   1.083       .  S
N510       C1325   1.353       .  A
N510       C1327   1.353   1_554  A
C511       N1326   1.350       .  A
C511       H1328   1.083       .  S
H512       C1327   1.083       .  S
C513        N514   1.340       .  A
C513        H523   1.084       .  S
N514        C515   1.347   1_554  A
N514        C726   1.384       .  S
C515        H521   1.083       .  S
C516        N517   1.357   1_554  A
C516        H518   1.083       .  S
N517        C519   1.352       .  A
N517        C632   1.452       .  S
C519        H520   1.083       .  S
H522       C1325   1.083       .  S
C524        C526   1.539       .  S
C524        C528   1.546       .  S
C524        C527   1.525       .  S
C524        C700   1.480       .  S
C525        C529   1.536       .  S
C525        C531   1.541       .  S
C525        C530   1.534       .  S
C525        C684   1.482       .  S
C526        C534   1.396       .  A
C526        C529   1.407       .  A
C527        C538   1.372       .  A
C527        C530   1.414       .  A
C528        C542   1.399       .  A
C528        C531   1.411       .  A
C529        C532   1.391       .  A
C530        C536   1.376       .  A
C531        C539   1.392       .  A
C532       N1349   1.352       .  A
C532       H1361   1.083       .  S
N533       C1348   1.354       .  A
N533       C1350   1.351       .  A
C534       N1349   1.354       .  A
C534       H1351   1.083       .  S
H535       C1350   1.083       .  S
C536        N537   1.346       .  A
C536        H546   1.083       .  S
N537        C538   1.341       .  A
N537        C714   1.385       .  S
C538        H544   1.083       .  S
C539        N540   1.353       .  A
C539        H541   1.083       .  S
N540        C542   1.356       .  A
N540        C646   1.452       .  S
C542        H543   1.083       .  S
H545       C1348   1.083       .  S
C547        C549   1.535       .  S
C547        C551   1.539       .  S
C547        C550   1.525       .  S
C547        C656   1.470       .  S
C548        C552   1.538       .  S
C548        C554   1.539       .  S
C548        C553   1.528       .  S
C548        C672   1.476       .  S
C549        C557   1.392   1_565  A
C549        C552   1.407   1_556  A
C550        C561   1.370       .  A
C550        C553   1.414   1_556  A
C551        C565   1.395       .  A
C551        C554   1.404   1_556  A
C552        C555   1.392   1_565  A
C553        C559   1.373       .  A
C554        C562   1.392       .  A
N556        C605   1.447       .  S
C559        N560   1.345   1_554  A
C559        H569   1.083       .  S
N560        C561   1.342       .  A
N560        C784   1.382       .  S
C561        H567   1.083       .  S
C562        N563   1.355       .  A
C562        H564   1.082       .  S
N563        C565   1.355   1_554  A
N563        C634   1.450       .  S
C565        H566   1.083       .  S
C570        C572   1.538       .  S
C570        C574   1.537       .  S
C570        C573   1.531       .  S
C570        C670   1.476       .  S
C571        C575   1.537       .  S
C571        C577   1.541       .  S
C571        C576   1.525       .  S
C571        C658   1.470       .  S
C572        C580   1.391   1_565  A
C572        C575   1.406       .  A
C573        C584   1.374       .  A
C573        C576   1.414       .  A
C574        C588   1.391       .  A
C574        C577   1.403       .  A
C575        C578   1.395   1_565  A
C576        C582   1.370       .  A
C577        C585   1.396       .  A
N579        C619   1.448       .  S
C582        N583   1.341       .  A
C582        H592   1.083       .  S
N583        C584   1.346       .  A
N583        C770   1.384       .  S
C584        H590   1.083       .  S
C585        N586   1.356       .  A
C585        H587   1.082       .  S
N586        C588   1.355       .  A
N586        C648   1.450       .  S
C588        H589   1.083       .  S
O593        V601   1.912       .  S
O593        C603   1.267   1_556  A
O594        V601   1.914       .  S
O594        C604   1.268       .  A
O595        V601   1.916       .  S
O595        C605   1.268   1_556  A
O596        V601   1.923       .  S
O596        C606   1.269   1_556  A
O597        V602   1.912       .  S
O597        C606   1.268       .  A
O598        V602   1.911       .  S
O598        C605   1.267       .  A
O599        V602   1.917       .  S
O599        C604   1.268   1_554  A
O600        V602   1.912       .  S
O600        C603   1.267       .  A
V601        V602   2.085   1_556  T
C606       N1234   1.451   1_455  S
O607        V615   1.912       .  S
O607        C617   1.268       .  A
O608        V615   1.918       .  S
O608        C618   1.268       .  A
O609        V615   1.911       .  S
O609        C619   1.267       .  A
O610        V615   1.914       .  S
O610        C620   1.268   1_455  A
O611        V616   1.925       .  S
O611        C620   1.270   1_455  A
O612        V616   1.918       .  S
O612        C619   1.269       .  A
O613        V616   1.911       .  S
O613        C618   1.267       .  A
O614        V616   1.910       .  S
O614        C617   1.266       .  A
V615        V616   2.085       .  T
C620       N1257   1.453       .  S
O621        V629   1.907       .  S
O621        C631   1.266       .  A
O622        V629   1.911       .  S
O622        C632   1.267       .  A
O623        V629   1.918       .  S
O623        C633   1.269       .  A
O624        V629   1.920       .  S
O624        C634   1.269   1_556  A
O625        V630   1.913       .  S
O625        C634   1.267       .  A
O626        V630   1.913       .  S
O626        C633   1.267   1_554  A
O627        V630   1.926       .  S
O627        C632   1.270   1_554  A
O628        V630   1.917       .  S
O628        C631   1.269   1_554  A
V629        V630   2.085   1_556  T
O635        V643   1.917       .  S
O635        C645   1.268       .  A
O636        V643   1.925       .  S
O636        C646   1.270       .  A
O637        V643   1.913       .  S
O637        C647   1.267       .  A
O638        V643   1.913       .  S
O638        C648   1.268       .  A
O639        V644   1.920       .  S
O639        C648   1.269       .  A
O640        V644   1.918       .  S
O640        C647   1.269       .  A
O641        V644   1.912       .  S
O641        C646   1.267       .  A
O642        V644   1.906       .  S
O642        C645   1.266       .  A
V643        V644   2.085       .  T
C649        C650   1.402       .  A
C649        C654   1.400       .  A
C649        C657   1.439       .  S
C650        C651   1.401       .  A
C650        H659   1.083       .  S
C651        C652   1.402       .  A
C651        H660   1.084       .  S
C652        C653   1.400       .  A
C652        C655   1.439       .  S
C653        C654   1.397       .  A
C653        H661   1.084       .  S
C654        H662   1.083       .  S
C655        C656   1.205       .  T
C657        C658   1.205       .  T
C663        C664   1.403       .  A
C663        C668   1.402       .  A
C663        C671   1.445       .  S
C664        C665   1.402       .  A
C664        H673   1.083       .  S
C665        C666   1.403       .  A
C665        H674   1.084       .  S
C666        C667   1.402       .  A
C666        C669   1.445       .  S
C667        C668   1.401       .  A
C667        H675   1.084   1_565  S
C668        H676   1.083   1_565  S
C669        C670   1.209       .  T
C671        C672   1.209       .  T
C677        C678   1.402       .  A
C677        C682   1.404       .  A
C677        C685   1.449       .  S
C678        C679   1.401       .  A
C678        H687   1.083       .  S
C679        C680   1.402       .  A
C679        H688   1.084       .  S
C680        C681   1.404       .  A
C680        C683   1.449       .  S
C681        C682   1.405       .  A
C681        H689   1.083       .  S
C682        H690   1.083       .  S
C683        C684   1.212       .  T
C685        C686   1.212       .  T
C691        C692   1.403       .  A
C691        C696   1.402       .  A
C691        C699   1.448       .  S
C692        C693   1.403       .  A
C692        H701   1.083       .  S
C693        C694   1.403       .  A
C693        H702   1.083       .  S
C694        C695   1.403       .  A
C694        C697   1.448       .  S
C695        C696   1.402       .  A
C695        H703   1.083       .  S
C696        H704   1.084       .  S
C697        C698   1.211       .  T
C699        C700   1.211       .  T
C705        C706   1.400       .  A
C705        C710   1.396       .  A
C705        C713   1.417       .  S
C706        C707   1.394       .  A
C706        H715   1.084       .  S
C707        C708   1.398       .  A
C707        H716   1.083       .  S
C708        C709   1.397       .  A
C708        C711   1.417       .  S
C709        C710   1.386       .  A
C709        H717   1.084       .  S
C710        H718   1.084       .  S
C711        C712   1.192       .  T
C719        C720   1.399       .  A
C719        C724   1.397   1_554  A
C719        C727   1.416       .  S
C720        C721   1.394       .  A
C720        H729   1.084       .  S
C721        C722   1.400       .  A
C721        H730   1.083       .  S
C722        C723   1.396   1_554  A
C722        C725   1.417       .  S
C723        C724   1.386       .  A
C723        H731   1.084       .  S
C724        H732   1.084       .  S
C727        C728   1.192       .  T
C733        C734   1.403       .  A
C733        C738   1.403       .  A
C733        C741   1.450       .  S
C734        C735   1.402       .  A
C734        H743   1.084       .  S
C735        C736   1.403       .  A
C735        H744   1.084       .  S
C736        C737   1.404       .  A
C736        C739   1.450       .  S
C737        C738   1.404       .  A
C737        H745   1.083       .  S
C738        H746   1.083       .  S
C739        C740   1.212       .  T
C741        C742   1.212       .  T
C747        C748   1.403       .  A
C747        C752   1.401       .  A
C747        C755   1.444       .  S
C748        C749   1.403       .  A
C748        H757   1.083       .  S
C749        C750   1.403       .  A
C749        H758   1.083       .  S
C750        C751   1.401       .  A
C750        C753   1.444       .  S
C751        C752   1.399       .  A
C751        H759   1.083       .  S
C752        H760   1.084       .  S
C753        C754   1.208       .  T
C755        C756   1.208       .  T
C761        C762   1.396       .  A
C761        C766   1.399       .  A
C761        C769   1.414       .  S
C762        C763   1.385       .  A
C762        H771   1.084       .  S
C763        C764   1.397       .  A
C763        H772   1.084       .  S
C764        C765   1.398       .  A
C764        C767   1.414       .  S
C765        C766   1.392       .  A
C765        H773   1.084       .  S
C766        H774   1.083       .  S
C767       C1584   1.190       .  T
C768       C1583   1.189       .  T
C769        C770   1.190       .  T
C775        C776   1.396   1_556  A
C775        C780   1.398       .  A
C775        C783   1.412       .  S
C776        C777   1.386       .  A
C776        H785   1.084       .  S
C777        C778   1.397   1_554  A
C777        H786   1.084       .  S
C778        C779   1.398       .  A
C778        C781   1.412       .  S
C779        C780   1.390       .  A
C779        H787   1.084       .  S
C780        H788   1.083       .  S
C781       C1598   1.189       .  T
C782       C1597   1.190       .  T
C783        C784   1.189       .  T
C789        C790   1.401       .  A
C789        C794   1.402       .  A
C789        C797   1.440       .  S
C790        C791   1.399       .  A
C790        H799   1.084       .  S
C791        C792   1.401       .  A
C791        H800   1.083       .  S
C792        C793   1.402       .  A
C792        C795   1.440       .  S
C793        C794   1.400       .  A
C793        H801   1.084       .  S
C794        H802   1.084       .  S
C795        C796   1.206       .  T
C797        C798   1.206       .  T
C803        C804   1.401       .  A
C803        C808   1.401       .  A
C803        C811   1.440       .  S
C804        C805   1.400       .  A
C804        H813   1.083       .  S
C805        C806   1.401       .  A
C805        H814   1.083       .  S
C806        C807   1.402       .  A
C806        C809   1.440       .  S
C807        C808   1.399       .  A
C807        H815   1.084       .  S
C808        H816   1.083       .  S
C809        C810   1.206       .  T
C811        C812   1.206       .  T
C817        C819   1.546       .  S
C817        C821   1.540       .  S
C817        C820   1.523       .  S
C817       C1204   1.475       .  S
C818        C822   1.536       .  S
C818        C824   1.535       .  S
C818        C823   1.534       .  S
C818       C1220   1.476       .  S
C819        C827   1.400       .  A
C819        C822   1.408   1_556  A
C820        C831   1.370       .  A
C820        C823   1.412   1_556  A
C821        C835   1.396       .  A
C821        C824   1.410   1_556  A
C822        C825   1.390       .  A
C823        C829   1.375       .  A
C824        C832   1.390       .  A
C825        N826   1.352       .  A
C825        H838   1.083       .  S
N826        C827   1.357   1_554  A
C827        H828   1.083       .  S
C829        N830   1.347   1_554  A
C829        H839   1.083       .  S
N830        C831   1.341       .  A
N830       C1190   1.384   1_655  S
C831        H837   1.083       .  S
C832        N833   1.351       .  A
C832        H834   1.083       .  S
N833        C835   1.354   1_554  A
N833       C1041   1.447       .  S
C835        H836   1.083       .  S
C840        C842   1.542       .  S
C840        C844   1.540       .  S
C840        C843   1.530       .  S
C840       C1218   1.477       .  S
C841        C845   1.544       .  S
C841        C847   1.540       .  S
C841        C846   1.525       .  S
C841       C1206   1.475       .  S
C842        C850   1.395       .  A
C842        C845   1.407       .  A
C843        C854   1.373       .  A
C843        C846   1.411       .  A
C844        C858   1.395       .  A
C844        C847   1.410       .  A
C845        C848   1.400       .  A
C846        C852   1.370       .  A
C847        C855   1.397       .  A
C848        N849   1.356       .  A
C848        H861   1.083       .  S
N849        C850   1.355       .  A
C850        H851   1.083       .  S
C852        N853   1.342       .  A
C852        H862   1.083       .  S
N853        C854   1.346       .  A
N853       C1176   1.383   1_655  S
C854        H860   1.083       .  S
C855        N856   1.354       .  A
C855        H857   1.083       .  S
N856        C858   1.353       .  A
N856       C1055   1.451       .  S
C858        H859   1.083       .  S
C863        C865   1.535       .  S
C863        C867   1.532       .  S
C863        C866   1.535       .  S
C863       C1162   1.475       .  S
C864        C868   1.533       .  S
C864        C870   1.541       .  S
C864        C869   1.521       .  S
C864       C1148   1.469       .  S
C865        C873   1.386       .  A
C865        C868   1.406   1_554  A
C866        C877   1.376       .  A
C866        C869   1.414   1_554  A
C867        C881   1.387       .  A
C867        C870   1.401   1_554  A
C868        C871   1.391       .  A
C869        C875   1.368       .  A
C870        C878   1.393       .  A
C871        N872   1.353   1_556  A
C871        H884   1.082       .  S
N872        C873   1.352       .  A
N872       C1039   1.442       .  S
C873        H874   1.083       .  S
C875        N876   1.339       .  A
C875        H885   1.084       .  S
N876        C877   1.348   1_556  A
N876       C1136   1.384       .  S
C877        H883   1.082       .  S
C878        N879   1.358   1_556  A
C878        H880   1.082       .  S
N879        C881   1.354       .  A
N879       C1012   1.447       .  S
C881        H882   1.082       .  S
C886        C888   1.540       .  S
C886        C890   1.538       .  S
C886        C889   1.530       .  S
C886       C1164   1.475       .  S
C887        C891   1.540       .  S
C887        C893   1.532       .  S
C887        C892   1.525       .  S
C887       C1150   1.470       .  S
C888        C896   1.393       .  A
C888        C891   1.407       .  A
C889        C900   1.377       .  A
C889        C892   1.415       .  A
C890        C904   1.392       .  A
C890        C893   1.403       .  A
C891        C894   1.393       .  A
C892        C898   1.370       .  A
C893        C901   1.390       .  A
C894        N895   1.355       .  A
C894        H907   1.083       .  S
N895        C896   1.355       .  A
N895       C1026   1.450       .  S
C896        H897   1.082       .  S
C898        N899   1.341       .  A
C898        H908   1.083       .  S
N899        C900   1.346       .  A
N899       C1120   1.385       .  S
C900        H906   1.083       .  S
C901        N902   1.353       .  A
C901        H903   1.083       .  S
N902        C904   1.355       .  A
N902       C1053   1.446       .  S
C904        H905   1.083       .  S
C909        C911   1.537       .  S
C909        C913   1.544       .  S
C909        C912   1.525       .  S
C909       C1094   1.477       .  S
C910        C914   1.536       .  S
C910        C916   1.539       .  S
C910        C915   1.532       .  S
C910       C1106   1.478       .  S
C911        C919   1.392   1_655  A
C911        C914   1.409   1_556  A
C912        C923   1.371       .  A
C912        C915   1.413   1_556  A
C913        C927   1.398       .  A
C913        C916   1.411   1_556  A
C914        C917   1.392   1_655  A
C915        C921   1.376       .  A
C916        C924   1.390       .  A
N918       C1419   1.443       .  S
C921        N922   1.346   1_554  A
C921        H931   1.083       .  S
N922        C923   1.341       .  A
N922       C1134   1.385       .  S
C923        H929   1.083       .  S
C924        N925   1.352       .  A
C924        H926   1.083       .  S
N925        C927   1.355   1_554  A
N925       C1040   1.450       .  S
C927        H928   1.083       .  S
C932        C934   1.533       .  S
C932        C936   1.536       .  S
C932        C935   1.533       .  S
C932       C1108   1.477       .  S
C933        C937   1.541       .  S
C933        C939   1.548       .  S
C933        C938   1.522       .  S
C933       C1092   1.478       .  S
C934        C942   1.389   1_655  A
C934        C937   1.410       .  A
C935        C946   1.375       .  A
C935        C938   1.409       .  A
C936        C950   1.387       .  A
C936        C939   1.410       .  A
C937        C940   1.394   1_655  A
C938        C944   1.371       .  A
C939        C947   1.401       .  A
N941       C1433   1.449       .  S
C944        N945   1.342       .  A
C944        H954   1.083       .  S
N945        C946   1.347       .  A
N945       C1122   1.385       .  S
C946        H952   1.083       .  S
C947        N948   1.358       .  A
C947        H949   1.083       .  S
N948        C950   1.351       .  A
N948       C1054   1.450       .  S
C950        H951   1.083       .  S
C955        C957   1.537       .  S
C955        C959   1.537       .  S
C955        C958   1.529       .  S
C955       C1064   1.472       .  S
C956        C960   1.537       .  S
C956        C962   1.541       .  S
C956        C961   1.524       .  S
C956       C1080   1.470       .  S
C957        C965   1.390       .  A
C957        C960   1.406   1_556  A
C958        C969   1.373       .  A
C958        C961   1.413   1_556  A
C959        C973   1.391       .  A
C959        C962   1.402   1_556  A
C960        C963   1.393       .  A
C961        C967   1.370       .  A
C962        C970   1.394       .  A
C963       N1372   1.355   1_554  A
C963       H1384   1.083       .  S
N964       C1371   1.355       .  A
N964       C1373   1.351   1_554  A
N964       C1013   1.443       .  S
C965       N1372   1.354       .  A
C965       H1374   1.083       .  S
H966       C1373   1.083       .  S
C967        N968   1.341       .  A
C967        H977   1.083       .  S
N968        C969   1.345   1_554  A
N968       C1192   1.383       .  S
C969        H975   1.083       .  S
C970        N971   1.357   1_554  A
C970        H972   1.083       .  S
N971        C973   1.355       .  A
N971       C1042   1.450       .  S
C973        H974   1.083       .  S
H976       C1371   1.083       .  S
C978        C980   1.537       .  S
C978        C982   1.543       .  S
C978        C981   1.524       .  S
C978       C1078   1.469       .  S
C979        C983   1.539       .  S
C979        C985   1.541       .  S
C979        C984   1.528       .  S
C979       C1066   1.472       .  S
C980        C988   1.395       .  A
C980        C983   1.405       .  A
C981        C992   1.370       .  A
C981        C984   1.412       .  A
C982        C996   1.396       .  A
C982        C985   1.405       .  A
C983        C986   1.393       .  A
C984        C990   1.373       .  A
C985        C993   1.395       .  A
C986       N1395   1.355       .  A
C986       H1407   1.083       .  S
N987       C1394   1.354       .  A
N987       C1396   1.355       .  A
N987       C1027   1.446       .  S
C988       N1395   1.355       .  A
C988       H1397   1.083       .  S
H989       C1396   1.082       .  S
C990        N991   1.345       .  A
C990       H1000   1.083       .  S
N991        C992   1.341       .  A
N991       C1178   1.383       .  S
C992        H998   1.084       .  S
C993        N994   1.356       .  A
C993        H995   1.082       .  S
N994        C996   1.356       .  A
N994       C1056   1.454       .  S
C996        H997   1.083       .  S
H999       C1394   1.083       .  S
O1001      V1009   1.908       .  S
O1001      C1011   1.267       .  A
O1002      V1009   1.912       .  S
O1002      C1012   1.266   1_556  A
O1003      V1009   1.906       .  S
O1003      C1013   1.267   1_556  A
O1004      V1009   1.915       .  S
O1004      C1014   1.268       .  A
O1005      V1010   1.922       .  S
O1005      C1014   1.270   1_554  A
O1006      V1010   1.913       .  S
O1006      C1013   1.267       .  A
O1007      V1010   1.914       .  S
O1007      C1012   1.269       .  A
O1008      V1010   1.917       .  S
O1008      C1011   1.268   1_554  A
V1009      V1010   2.086   1_556  T
C1011      N1326   1.446   1_545  S
O1015      V1023   1.916       .  S
O1015      C1025   1.268       .  A
O1016      V1023   1.917       .  S
O1016      C1026   1.268       .  A
O1017      V1023   1.916       .  S
O1017      C1027   1.268       .  A
O1018      V1023   1.921       .  S
O1018      C1028   1.269       .  A
O1019      V1024   1.910       .  S
O1019      C1028   1.267       .  A
O1020      V1024   1.909       .  S
O1020      C1027   1.267       .  A
O1021      V1024   1.917       .  S
O1021      C1026   1.268       .  A
O1022      V1024   1.912       .  S
O1022      C1025   1.268       .  A
V1023      V1024   2.085       .  T
C1025      N1349   1.448   1_545  S
O1029      V1037   1.913       .  S
O1029      C1039   1.267   1_556  A
O1030      V1037   1.923       .  S
O1030      C1040   1.269   1_556  A
O1031      V1037   1.915       .  S
O1031      C1041   1.267   1_556  A
O1032      V1037   1.916       .  S
O1032      C1042   1.268       .  A
O1033      V1038   1.916       .  S
O1033      C1042   1.268   1_554  A
O1034      V1038   1.912       .  S
O1034      C1041   1.268       .  A
O1035      V1038   1.908       .  S
O1035      C1040   1.267       .  A
O1036      V1038   1.903       .  S
O1036      C1039   1.265       .  A
V1037      V1038   2.086   1_556  T
O1043      V1051   1.910       .  S
O1043      C1053   1.266       .  A
O1044      V1051   1.910       .  S
O1044      C1054   1.268       .  A
O1045      V1051   1.917       .  S
O1045      C1055   1.269       .  A
O1046      V1051   1.920       .  S
O1046      C1056   1.269       .  A
O1047      V1052   1.921       .  S
O1047      C1056   1.269       .  A
O1048      V1052   1.918       .  S
O1048      C1055   1.269       .  A
O1049      V1052   1.923       .  S
O1049      C1054   1.269       .  A
O1050      V1052   1.914       .  S
O1050      C1053   1.268       .  A
V1051      V1052   2.085       .  T
C1057      C1058   1.402       .  A
C1057      C1062   1.402       .  A
C1057      C1065   1.441       .  S
C1058      C1059   1.400       .  A
C1058      H1067   1.083       .  S
C1059      C1060   1.401       .  A
C1059      H1068   1.084       .  S
C1060      C1061   1.402       .  A
C1060      C1063   1.441       .  S
C1061      C1062   1.400       .  A
C1061      H1069   1.084       .  S
C1062      H1070   1.083       .  S
C1063      C1064   1.207       .  T
C1065      C1066   1.207       .  T
C1071      C1072   1.401       .  A
C1071      C1076   1.401       .  A
C1071      C1079   1.438       .  S
C1072      C1073   1.398       .  A
C1072      H1081   1.084       .  S
C1073      C1074   1.401       .  A
C1073      H1082   1.084       .  S
C1074      C1075   1.401       .  A
C1074      C1077   1.438       .  S
C1075      C1076   1.400       .  A
C1075      H1083   1.083       .  S
C1076      H1084   1.084       .  S
C1077      C1078   1.205       .  T
C1079      C1080   1.205       .  T
C1085      C1086   1.403       .  A
C1085      C1090   1.401       .  A
C1085      C1093   1.445       .  S
C1086      C1087   1.403       .  A
C1086      H1095   1.083   1_655  S
C1087      C1088   1.403       .  A
C1087      H1096   1.083   1_655  S
C1088      C1089   1.402       .  A
C1088      C1091   1.446       .  S
C1089      C1090   1.400       .  A
C1089      H1097   1.084       .  S
C1090      H1098   1.083       .  S
C1091      C1092   1.210       .  T
C1093      C1094   1.209       .  T
C1099      C1100   1.403       .  A
C1099      C1104   1.401       .  A
C1099      C1107   1.445       .  S
C1100      C1101   1.403       .  A
C1100      H1109   1.084       .  S
C1101      C1102   1.403       .  A
C1101      H1110   1.083       .  S
C1102      C1103   1.401       .  A
C1102      C1105   1.445       .  S
C1103      C1104   1.399       .  A
C1103      H1111   1.084       .  S
C1104      H1112   1.084       .  S
C1105      C1106   1.209       .  T
C1107      C1108   1.209       .  T
C1113      C1114   1.397       .  A
C1113      C1118   1.399       .  A
C1113      C1121   1.417   1_545  S
C1114      C1115   1.386       .  A
C1114      H1123   1.084       .  S
C1115      C1116   1.395       .  A
C1115      H1124   1.084       .  S
C1116      C1117   1.400       .  A
C1116      C1119   1.416       .  S
C1117      C1118   1.394       .  A
C1117      H1125   1.084       .  S
C1118      H1126   1.083       .  S
C1119      C1120   1.191       .  T
C1121      C1530   1.192       .  T
C1122      C1529   1.191       .  T
C1127      C1128   1.396   1_556  A
C1127      C1132   1.399       .  A
C1127      C1135   1.413       .  S
C1128      C1129   1.384       .  A
C1128      H1137   1.084       .  S
C1129      C1130   1.395   1_544  A
C1129      H1138   1.084       .  S
C1130      C1131   1.400   1_565  A
C1130      C1133   1.413       .  S
C1131      C1132   1.393       .  A
C1131      H1139   1.084   1_545  S
C1132      H1140   1.083       .  S
C1133      C1542   1.190       .  T
C1134      C1541   1.191       .  T
C1135      C1136   1.190       .  T
C1141      C1142   1.401       .  A
C1141      C1146   1.401       .  A
C1141      C1149   1.438       .  S
C1142      C1143   1.399       .  A
C1142      H1151   1.084       .  S
C1143      C1144   1.402       .  A
C1143      H1152   1.084       .  S
C1144      C1145   1.401       .  A
C1144      C1147   1.438       .  S
C1145      C1146   1.399       .  A
C1145      H1153   1.083       .  S
C1146      H1154   1.084       .  S
C1147      C1148   1.205       .  T
C1149      C1150   1.205       .  T
C1155      C1156   1.403       .  A
C1155      C1160   1.402       .  A
C1155      C1163   1.444       .  S
C1156      C1157   1.402       .  A
C1156      H1165   1.084       .  S
C1157      C1158   1.403       .  A
C1157      H1166   1.084       .  S
C1158      C1159   1.401       .  A
C1158      C1161   1.444       .  S
C1159      C1160   1.400       .  A
C1159      H1167   1.083       .  S
C1160      H1168   1.083       .  S
C1161      C1162   1.208       .  T
C1163      C1164   1.209       .  T
C1169      C1170   1.398       .  A
C1169      C1174   1.396       .  A
C1169      C1177   1.413       .  S
C1170      C1171   1.391       .  A
C1170      H1179   1.083       .  S
C1171      C1172   1.398       .  A
C1171      H1180   1.084       .  S
C1172      C1173   1.397       .  A
C1172      C1175   1.413       .  S
C1173      C1174   1.386       .  A
C1173      H1181   1.084       .  S
C1174      H1182   1.084       .  S
C1177      C1178   1.189       .  T
C1183      C1184   1.398       .  A
C1183      C1188   1.396   1_554  A
C1183      C1191   1.412       .  S
C1184      C1185   1.391       .  A
C1184      H1193   1.084       .  S
C1185      C1186   1.398       .  A
C1185      H1194   1.084       .  S
C1186      C1187   1.396   1_554  A
C1186      C1189   1.411       .  S
C1187      C1188   1.385       .  A
C1187      H1195   1.084       .  S
C1188      H1196   1.084       .  S
C1191      C1192   1.189       .  T
C1197      C1198   1.402       .  A
C1197      C1202   1.402       .  A
C1197      C1205   1.443       .  S
C1198      C1199   1.400       .  A
C1198      H1207   1.084       .  S
C1199      C1200   1.402       .  A
C1199      H1208   1.083       .  S
C1200      C1201   1.402       .  A
C1200      C1203   1.443       .  S
C1201      C1202   1.401       .  A
C1201      H1209   1.084       .  S
C1202      H1210   1.084       .  S
C1203      C1204   1.208       .  T
C1205      C1206   1.208       .  T
C1211      C1212   1.402       .  A
C1211      C1216   1.402       .  A
C1211      C1219   1.444       .  S
C1212      C1213   1.401       .  A
C1212      H1221   1.083       .  S
C1213      C1214   1.402       .  A
C1213      H1222   1.083       .  S
C1214      C1215   1.402       .  A
C1214      C1217   1.445       .  S
C1215      C1216   1.401       .  A
C1215      H1223   1.083       .  S
C1216      H1224   1.084       .  S
C1217      C1218   1.209       .  T
C1219      C1220   1.209       .  T
C1225      C1227   1.545       .  S
C1225      C1229   1.540       .  S
C1225      C1228   1.524       .  S
C1225      C1612   1.477       .  S
C1226      C1230   1.538       .  S
C1226      C1232   1.535       .  S
C1226      C1231   1.530       .  S
C1226      C1628   1.477       .  S
C1227      C1235   1.399       .  A
C1227      C1230   1.409   1_556  A
C1228      C1239   1.370       .  A
C1228      C1231   1.411   1_556  A
C1229      C1243   1.395       .  A
C1229      C1232   1.411   1_556  A
C1230      C1233   1.391       .  A
C1231      C1237   1.372       .  A
C1232      C1240   1.390       .  A
C1233      N1234   1.352       .  A
C1233      H1246   1.083       .  S
N1234      C1235   1.356   1_554  A
C1235      H1236   1.083       .  S
C1237      N1238   1.345   1_554  A
C1237      H1247   1.083       .  S
N1238      C1239   1.342       .  A
N1238      C1598   1.382   1_655  S
C1239      H1245   1.083       .  S
C1240      N1241   1.351       .  A
C1240      H1242   1.083       .  S
N1241      C1243   1.353   1_554  A
N1241      C1449   1.446   1_554  S
C1243      H1244   1.083       .  S
C1248      C1250   1.541       .  S
C1248      C1252   1.537       .  S
C1248      C1251   1.531       .  S
C1248      C1626   1.477       .  S
C1249      C1253   1.546       .  S
C1249      C1255   1.540       .  S
C1249      C1254   1.524       .  S
C1249      C1614   1.477       .  S
C1250      C1258   1.392       .  A
C1250      C1253   1.410       .  A
C1251      C1262   1.374       .  A
C1251      C1254   1.412       .  A
C1252      C1266   1.393       .  A
C1252      C1255   1.408       .  A
C1253      C1256   1.400       .  A
C1254      C1260   1.371       .  A
C1255      C1263   1.396       .  A
C1256      N1257   1.356       .  A
C1256      H1269   1.083       .  S
N1257      C1258   1.353       .  A
C1258      H1259   1.083       .  S
C1260      N1261   1.341       .  A
C1260      H1270   1.083       .  S
N1261      C1262   1.346       .  A
N1261      C1584   1.384   1_655  S
C1262      H1268   1.083       .  S
C1263      N1264   1.355       .  A
C1263      H1265   1.083       .  S
N1264      C1266   1.352       .  A
N1264      C1463   1.450       .  S
C1266      H1267   1.083       .  S
C1271      C1273   1.534       .  S
C1271      C1275   1.534       .  S
C1271      C1274   1.534       .  S
C1271      C1570   1.476       .  S
C1272      C1276   1.534       .  S
C1272      C1278   1.540       .  S
C1272      C1277   1.523       .  S
C1272      C1556   1.471       .  S
C1273      C1281   1.386       .  A
C1273      C1276   1.405   1_554  A
C1274      C1285   1.376       .  A
C1274      C1277   1.414   1_554  A
C1275      C1289   1.387       .  A
C1275      C1278   1.404   1_554  A
C1276      C1279   1.390       .  A
C1277      C1283   1.370       .  A
C1278      C1286   1.393       .  A
C1279      N1280   1.353       .  A
C1279      H1292   1.083       .  S
N1280      C1281   1.352   1_556  A
N1280      C1447   1.441       .  S
C1281      H1282   1.083       .  S
C1283      N1284   1.341       .  A
C1283      H1293   1.083       .  S
N1284      C1285   1.348   1_556  A
N1284      C1544   1.386       .  S
C1285      H1291   1.083       .  S
C1286      N1287   1.356       .  A
C1286      H1288   1.083       .  S
N1287      C1289   1.354   1_556  A
N1287      C1420   1.446       .  S
C1289      H1290   1.082       .  S
C1294      C1296   1.541       .  S
C1294      C1298   1.537       .  S
C1294      C1297   1.531       .  S
C1294      C1572   1.476       .  S
C1295      C1299   1.541       .  S
C1295      C1301   1.531       .  S
C1295      C1300   1.523       .  S
C1295      C1558   1.470       .  S
C1296      C1304   1.394       .  A
C1296      C1299   1.406       .  A
C1297      C1308   1.375       .  A
C1297      C1300   1.413       .  A
C1298      C1312   1.390       .  A
C1298      C1301   1.405       .  A
C1299      C1302   1.393       .  A
C1300      C1306   1.369       .  A
C1301      C1309   1.391       .  A
C1302      N1303   1.355       .  A
C1302      H1315   1.082       .  S
N1303      C1304   1.356       .  A
N1303      C1434   1.451       .  S
C1304      H1305   1.082       .  S
C1306      N1307   1.341       .  A
C1306      H1316   1.083       .  S
N1307      C1308   1.347       .  A
N1307      C1528   1.384       .  S
C1308      H1314   1.083       .  S
C1309      N1310   1.353       .  A
C1309      H1311   1.083       .  S
N1310      C1312   1.354       .  A
N1310      C1461   1.444       .  S
C1312      H1313   1.083       .  S
C1317      C1319   1.536       .  S
C1317      C1321   1.543       .  S
C1317      C1320   1.525       .  S
C1317      C1502   1.474       .  S
C1318      C1322   1.537       .  S
C1318      C1324   1.539       .  S
C1318      C1323   1.533       .  S
C1318      C1514   1.478       .  S
C1319      C1327   1.392   1_655  A
C1319      C1322   1.408   1_556  A
C1320      C1331   1.370       .  A
C1320      C1323   1.414   1_556  A
C1321      C1335   1.398       .  A
C1321      C1324   1.409   1_556  A
C1322      C1325   1.393   1_655  A
C1323      C1329   1.377       .  A
C1324      C1332   1.391       .  A
C1329      N1330   1.346   1_554  A
C1329      H1339   1.083       .  S
N1330      C1331   1.340       .  A
N1330      C1542   1.384       .  S
C1331      H1337   1.083       .  S
C1332      N1333   1.352       .  A
C1332      H1334   1.083       .  S
N1333      C1335   1.355   1_554  A
N1333      C1448   1.450   1_554  S
C1335      H1336   1.083       .  S
C1340      C1342   1.535       .  S
C1340      C1344   1.536       .  S
C1340      C1343   1.535       .  S
C1340      C1516   1.478       .  S
C1341      C1345   1.540       .  S
C1341      C1347   1.543       .  S
C1341      C1346   1.523       .  S
C1341      C1500   1.474       .  S
C1342      C1350   1.390   1_655  A
C1342      C1345   1.410       .  A
C1343      C1354   1.375       .  A
C1343      C1346   1.410       .  A
C1344      C1358   1.388       .  A
C1344      C1347   1.409       .  A
C1345      C1348   1.395   1_655  A
C1346      C1352   1.371       .  A
C1347      C1355   1.398       .  A
C1352      N1353   1.343       .  A
C1352      H1362   1.082       .  S
N1353      C1354   1.348       .  A
N1353      C1530   1.386       .  S
C1354      H1360   1.083       .  S
C1355      N1356   1.355       .  A
C1355      H1357   1.083       .  S
N1356      C1358   1.352       .  A
N1356      C1462   1.449       .  S
C1358      H1359   1.083       .  S
C1363      C1365   1.533       .  S
C1363      C1367   1.534       .  S
C1363      C1366   1.530       .  S
C1363      C1472   1.474       .  S
C1364      C1368   1.537       .  S
C1364      C1370   1.542       .  S
C1364      C1369   1.524       .  S
C1364      C1488   1.472       .  S
C1365      C1373   1.385   1_565  A
C1365      C1368   1.406   1_556  A
C1366      C1377   1.374       .  A
C1366      C1369   1.412   1_556  A
C1367      C1381   1.389       .  A
C1367      C1370   1.404   1_556  A
C1368      C1371   1.393   1_565  A
C1369      C1375   1.371       .  A
C1370      C1378   1.392       .  A
N1372      C1421   1.447       .  S
C1375      N1376   1.342       .  A
C1375      H1385   1.083       .  S
N1376      C1377   1.346   1_554  A
N1376      C1600   1.384       .  S
C1377      H1383   1.083       .  S
C1378      N1379   1.357   1_554  A
C1378      H1380   1.082       .  S
N1379      C1381   1.354       .  A
N1379      C1450   1.447       .  S
C1381      H1382   1.083       .  S
C1386      C1388   1.533       .  S
C1386      C1390   1.541       .  S
C1386      C1389   1.523       .  S
C1386      C1486   1.471       .  S
C1387      C1391   1.537       .  S
C1387      C1393   1.542       .  S
C1387      C1392   1.529       .  S
C1387      C1474   1.475       .  S
C1388      C1396   1.392   1_565  A
C1388      C1391   1.404       .  A
C1389      C1400   1.370       .  A
C1389      C1392   1.413       .  A
C1390      C1404   1.393       .  A
C1390      C1393   1.407       .  A
C1391      C1394   1.389   1_565  A
C1392      C1398   1.374       .  A
C1393      C1401   1.394       .  A
N1395      C1435   1.451       .  S
C1398      N1399   1.345       .  A
C1398      H1408   1.083       .  S
N1399      C1400   1.340       .  A
N1399      C1586   1.382       .  S
C1400      H1406   1.083       .  S
C1401      N1402   1.356       .  A
C1401      H1403   1.083       .  S
N1402      C1404   1.355       .  A
N1402      C1464   1.451       .  S
C1404      H1405   1.082       .  S
O1409      V1417   1.909       .  S
O1409      C1419   1.267       .  A
O1410      V1417   1.915       .  S
O1410      C1420   1.267       .  A
O1411      V1417   1.912       .  S
O1411      C1421   1.267       .  A
O1412      V1417   1.917       .  S
O1412      C1422   1.269       .  A
O1413      V1418   1.923       .  S
O1413      C1422   1.270   1_554  A
O1414      V1418   1.916       .  S
O1414      C1421   1.268   1_554  A
O1415      V1418   1.910       .  S
O1415      C1420   1.267   1_554  A
O1416      V1418   1.909       .  S
O1416      C1419   1.266   1_554  A
V1417      V1418   2.085   1_556  T
O1423      V1431   1.915       .  S
O1423      C1433   1.268       .  A
O1424      V1431   1.918       .  S
O1424      C1434   1.268       .  A
O1425      V1431   1.920       .  S
O1425      C1435   1.269       .  A
O1426      V1431   1.926       .  S
O1426      C1436   1.270       .  A
O1427      V1432   1.916       .  S
O1427      C1436   1.269       .  A
O1428      V1432   1.915       .  S
O1428      C1435   1.268       .  A
O1429      V1432   1.916       .  S
O1429      C1434   1.268       .  A
O1430      V1432   1.915       .  S
O1430      C1433   1.268       .  A
V1431      V1432   2.085       .  T
O1437      V1445   1.912       .  S
O1437      C1447   1.267       .  A
O1438      V1445   1.922       .  S
O1438      C1448   1.269       .  A
O1439      V1445   1.915       .  S
O1439      C1449   1.268       .  A
O1440      V1445   1.915       .  S
O1440      C1450   1.268       .  A
O1441      V1446   1.911       .  S
O1441      C1450   1.267   1_554  A
O1442      V1446   1.908       .  S
O1442      C1449   1.267   1_554  A
O1443      V1446   1.910       .  S
O1443      C1448   1.267   1_554  A
O1444      V1446   1.904       .  S
O1444      C1447   1.265   1_554  A
V1445      V1446   2.086   1_556  T
O1451      V1459   1.904       .  S
O1451      C1461   1.265       .  A
O1452      V1459   1.905       .  S
O1452      C1462   1.266       .  A
O1453      V1459   1.917       .  S
O1453      C1463   1.269       .  A
O1454      V1459   1.919       .  S
O1454      C1464   1.269       .  A
O1455      V1460   1.917       .  S
O1455      C1464   1.268       .  A
O1456      V1460   1.915       .  S
O1456      C1463   1.268       .  A
O1457      V1460   1.924       .  S
O1457      C1462   1.270       .  A
O1458      V1460   1.917       .  S
O1458      C1461   1.269       .  A
V1459      V1460   2.085       .  T
C1465      C1466   1.401       .  A
C1465      C1470   1.403       .  A
C1465      C1473   1.444       .  S
C1466      C1467   1.400       .  A
C1466      H1475   1.083       .  S
C1467      C1468   1.401       .  A
C1467      H1476   1.084       .  S
C1468      C1469   1.403       .  A
C1468      C1471   1.443       .  S
C1469      C1470   1.401       .  A
C1469      H1477   1.084   1_565  S
C1470      H1478   1.084   1_565  S
C1471      C1472   1.208       .  T
C1473      C1474   1.208       .  T
C1479      C1480   1.401       .  A
C1479      C1484   1.402       .  A
C1479      C1487   1.441       .  S
C1480      C1481   1.398       .  A
C1480      H1489   1.083       .  S
C1481      C1482   1.401       .  A
C1481      H1490   1.084       .  S
C1482      C1483   1.402       .  A
C1482      C1485   1.440       .  S
C1483      C1484   1.401       .  A
C1483      H1491   1.084       .  S
C1484      H1492   1.083       .  S
C1485      C1486   1.206       .  T
C1487      C1488   1.207       .  T
C1493      C1494   1.401       .  A
C1493      C1498   1.402       .  A
C1493      C1501   1.442       .  S
C1494      C1495   1.400       .  A
C1494      H1503   1.084   1_655  S
C1495      C1496   1.402       .  A
C1495      H1504   1.083   1_655  S
C1496      C1497   1.402       .  A
C1496      C1499   1.442       .  S
C1497      C1498   1.400       .  A
C1497      H1505   1.084       .  S
C1498      H1506   1.083       .  S
C1499      C1500   1.207       .  T
C1501      C1502   1.207       .  T
C1507      C1508   1.403       .  A
C1507      C1512   1.402       .  A
C1507      C1515   1.446       .  S
C1508      C1509   1.403       .  A
C1508      H1517   1.083       .  S
C1509      C1510   1.403       .  A
C1509      H1518   1.083       .  S
C1510      C1511   1.402       .  A
C1510      C1513   1.446       .  S
C1511      C1512   1.401       .  A
C1511      H1519   1.083       .  S
C1512      H1520   1.084       .  S
C1513      C1514   1.210       .  T
C1515      C1516   1.210       .  T
C1521      C1522   1.397       .  A
C1521      C1526   1.399       .  A
C1521      C1529   1.415       .  S
C1522      C1523   1.385       .  A
C1522      H1531   1.084       .  S
C1523      C1524   1.395       .  A
C1523      H1532   1.084       .  S
C1524      C1525   1.399       .  A
C1524      C1527   1.414       .  S
C1525      C1526   1.393       .  A
C1525      H1533   1.084       .  S
C1526      H1534   1.083       .  S
C1527      C1528   1.190       .  T
C1535      C1536   1.396   1_556  A
C1535      C1540   1.399       .  A
C1535      C1543   1.416       .  S
C1536      C1537   1.385       .  A
C1536      H1545   1.084       .  S
C1537      C1538   1.396   1_554  A
C1537      H1546   1.084       .  S
C1538      C1539   1.399       .  A
C1538      C1541   1.414       .  S
C1539      C1540   1.393       .  A
C1539      H1547   1.083       .  S
C1540      H1548   1.084       .  S
C1543      C1544   1.192       .  T
C1549      C1550   1.401       .  A
C1549      C1554   1.401       .  A
C1549      C1557   1.439       .  S
C1550      C1551   1.399       .  A
C1550      H1559   1.084       .  S
C1551      C1552   1.401       .  A
C1551      H1560   1.083       .  S
C1552      C1553   1.401       .  A
C1552      C1555   1.439       .  S
C1553      C1554   1.400       .  A
C1553      H1561   1.083       .  S
C1554      H1562   1.083       .  S
C1555      C1556   1.206       .  T
C1557      C1558   1.205       .  T
C1563      C1564   1.402       .  A
C1563      C1568   1.403       .  A
C1563      C1571   1.446       .  S
C1564      C1565   1.401       .  A
C1564      H1573   1.083       .  S
C1565      C1566   1.402       .  A
C1565      H1574   1.083       .  S
C1566      C1567   1.403       .  A
C1566      C1569   1.445       .  S
C1567      C1568   1.402       .  A
C1567      H1575   1.083       .  S
C1568      H1576   1.083       .  S
C1569      C1570   1.209       .  T
C1571      C1572   1.209       .  T
C1577      C1578   1.398       .  A
C1577      C1582   1.396       .  A
C1577      C1585   1.412       .  S
C1578      C1579   1.392       .  A
C1578      H1587   1.083       .  S
C1579      C1580   1.398       .  A
C1579      H1588   1.084       .  S
C1580      C1581   1.396       .  A
C1580      C1583   1.412       .  S
C1581      C1582   1.384       .  A
C1581      H1589   1.084       .  S
C1582      H1590   1.084       .  S
C1585      C1586   1.189       .  T
C1591      C1592   1.398       .  A
C1591      C1596   1.396   1_554  A
C1591      C1599   1.414       .  S
C1592      C1593   1.392       .  A
C1592      H1601   1.084       .  S
C1593      C1594   1.399       .  A
C1593      H1602   1.084       .  S
C1594      C1595   1.396   1_554  A
C1594      C1597   1.413       .  S
C1595      C1596   1.385       .  A
C1595      H1603   1.084       .  S
C1596      H1604   1.084       .  S
C1599      C1600   1.191       .  T
C1605      C1606   1.402       .  A
C1605      C1610   1.402       .  A
C1605      C1613   1.445       .  S
C1606      C1607   1.401       .  A
C1606      H1615   1.083       .  S
C1607      C1608   1.402       .  A
C1607      H1616   1.083       .  S
C1608      C1609   1.402       .  A
C1608      C1611   1.445       .  S
C1609      C1610   1.401       .  A
C1609      H1617   1.084       .  S
C1610      H1618   1.083       .  S
C1611      C1612   1.209       .  T
C1613      C1614   1.209       .  T
C1619      C1620   1.402       .  A
C1619      C1624   1.403       .  A
C1619      C1627   1.444       .  S
C1620      C1621   1.400       .  A
C1620      H1629   1.084       .  S
C1621      C1622   1.402       .  A
C1621      H1630   1.083       .  S
C1622      C1623   1.403       .  A
C1622      C1625   1.445       .  S
C1623      C1624   1.402       .  A
C1623      H1631   1.083       .  S
C1624      H1632   1.083       .  S
C1625      C1626   1.209       .  T
C1627      C1628   1.209       .  T
