geometry optimzed in LAMMPS
_audit_creation_date              2020-12-01 
_audit_creation_method            'lammps2cif' 
_symmetry_space_group_name_H-M    'P1' 
_symmetry_Int_Tables_number       1 
_symmetry_cell_setting            triclinic 
loop_ 
_symmetry_equiv_pos_as_xyz 
  x,y,z 
_cell_length_a                    46.03644248 
_cell_length_b                    46.0277744499103 
_cell_length_c                    63.82344672731322 
_cell_angle_alpha                 90.00172410515191 
_cell_angle_beta                  90.01600435545244 
_cell_angle_gamma                 93.24221051041044 
loop_ 
_atom_site_label 
_atom_site_type_symbol 
_atom_site_fract_x 
_atom_site_fract_y 
_atom_site_fract_z 
_atom_site_charge 
C1          C  0.42475248  0.95285003  0.25837800     0.82500
N2          N  0.41305137  0.94709938  0.23912214    -0.75800
C3          C  0.38367926  0.94557823  0.23649163     0.85000
N4          N  0.36606798  0.94978475  0.25312750    -0.75700
C5          C  0.37755992  0.95552369  0.27236480     0.85100
N6          N  0.40693954  0.95702250  0.27500587    -0.77400
N7          N  0.25503940  0.90117763  0.07457914    -0.01200
C8          C  0.28189910  0.90450226  0.08318744     0.01400
C9          C  0.30292798  0.90273795  0.06787733    -0.21400
C10         C  0.28836619  0.89813373  0.04915368    -0.21700
C11         C  0.25902365  0.89727870  0.05377472     0.01300
H12         H  0.32627517  0.90454959  0.07006412     0.15100
H13         H  0.29812826  0.89561102  0.03388332     0.15200
N14         N  0.95595439  0.17940155  0.17125975    -0.01200
C15         C  0.95786571  0.20596958  0.16208793     0.01400
C16         C  0.95338332  0.22735279  0.17672569    -0.21400
C17         C  0.94854608  0.21336255  0.19562159    -0.21700
C18         C  0.95027287  0.18399104  0.19177672     0.01300
H19         H  0.95373587  0.25058004  0.17400299     0.15100
H20         H  0.94437376  0.22352572  0.21053166     0.15200
Fe21       Fe  0.97343532  0.90297701  0.15127786     1.65800
Fe22       Fe  0.97824801  0.89765572  0.09778177     1.73200
Fe23       Fe  0.93003974  0.85262262  0.12484828     1.54400
O24         O  0.94359579  0.83457957  0.15281098    -0.79400
O25         O  0.93898005  0.90054192  0.08269485    -0.77700
O26         O  0.97858157  0.86418081  0.16637118    -0.81900
O27         O  0.93089652  0.90433924  0.16246626    -0.76700
O28         O  0.95596311  0.82526701  0.10870007    -0.78500
O29         O  0.97687945  0.94174403  0.10517451    -0.81200
C30         C  0.90580674  0.89461883  0.15646562     0.99500
C31         C  0.96280673  0.84080944  0.16658111     1.07000
O32         O  0.96060227  0.88448526  0.12462853    -1.10200
O33         O  0.01989371  0.89626540  0.10912357    -0.72600
O34         O  0.01751629  0.90370458  0.14360608    -0.76100
O35         O  0.90173164  0.87742612  0.14106098    -0.76800
C36         C  0.03177794  0.90000943  0.12686307     0.98400
O37         O  0.96983422  0.94423705  0.13972027    -0.74800
O38         O  0.98168826  0.85513864  0.08707093    -0.80000
C39         C  0.91614507  0.88393106  0.08286001     1.01100
C40         C  0.97313021  0.82981918  0.09334013     1.07000
O41         O  0.91088963  0.86489985  0.09692774    -0.75600
C42         C  0.97278510  0.95601010  0.12187685     1.05300
C43         C  0.02069048  0.34699328  0.98845129     0.82500
N44         N  0.02778412  0.32920610  0.97241060    -0.75800
C45         C  0.02710141  0.29986328  0.97530078     0.85000
N46         N  0.01923473  0.28839727  0.99419718    -0.75700
C47         C  0.01212821  0.30600600  0.01023610     0.85100
N48         N  0.01285672  0.33530581  0.00734650    -0.77400
N49         N  0.21152162  0.97340342  0.41673334    -0.01200
C50         C  0.23847629  0.97200176  0.40840599     0.01400
C51         C  0.25873830  0.96890753  0.42408913    -0.21400
C52         C  0.24367849  0.96833541  0.44275573    -0.21700
C53         C  0.21479969  0.97110353  0.43775033     0.01300
H54         H  0.28192340  0.96707927  0.42216593     0.15100
H55         H  0.25278658  0.96598107  0.45825902     0.15200
N56         N  0.95299308  0.71433480  0.33058553    -0.01200
C57         C  0.95413124  0.68696996  0.33822521     0.01400
C58         C  0.95667278  0.66734835  0.32204880    -0.21400
C59         C  0.95723093  0.68324337  0.30376147    -0.21700
C60         C  0.95500851  0.71192872  0.30950710     0.01300
H61         H  0.95822866  0.64404549  0.32340631     0.15100
H62         H  0.95927127  0.67482433  0.28802716     0.15200
Fe63       Fe  0.92859562  0.98966687  0.34820616     1.65800
Fe64       Fe  0.93783131  0.99620522  0.40138113     1.73200
Fe65       Fe  0.88858128  0.03716202  0.37606705     1.54400
O66         O  0.90307099  0.05786834  0.34863731    -0.79400
O67         O  0.89966267  0.99062709  0.41796904    -0.77700
O68         O  0.93346371  0.02890018  0.33278700    -0.81900
O69         O  0.88538582  0.98416778  0.33863197    -0.76700
O70         O  0.91518747  0.06634996  0.39278259    -0.78500
O71         O  0.93441161  0.95185643  0.39433414    -0.81200
C72         C  0.86111669  0.99304394  0.34468484     0.99500
C73         C  0.92060271  0.05242245  0.33397330     1.07000
O74         O  0.91834008  0.00765898  0.37522230    -1.10200
O75         O  0.97866473  0.00018233  0.38840588    -0.72600
O76         O  0.97320970  0.99253553  0.35407896    -0.76100
O77         O  0.85871029  0.01122123  0.35942311    -0.76800
C78         C  0.98896488  0.99683107  0.37025118     0.98400
O79         O  0.92510249  0.94806678  0.36008213    -0.74800
O80         O  0.94399895  0.03908662  0.41180523    -0.80000
C81         C  0.87595354  0.00321647  0.41777487     1.01100
C82         C  0.93447833  0.06352523  0.40670342     1.07000
O83         O  0.86942993  0.02114833  0.40364191    -0.75600
C84         C  0.92927069  0.93686915  0.37787281     1.05300
C85         C  0.98337526  0.50142110  0.48856808     0.82500
N86         N  0.97880422  0.51849599  0.47160156    -0.75800
C87         C  0.97969405  0.54795762  0.47369536     0.85000
N88         N  0.98518405  0.56025745  0.49271250    -0.75700
C89         C  0.98976795  0.54333728  0.50966104     0.85100
N90         N  0.98887679  0.51391444  0.50757907    -0.77400
N91         N  0.05733105  0.13913868  0.82943269    -0.01200
C92         C  0.05731904  0.16604173  0.83804982     0.01400
C93         C  0.05682353  0.18691513  0.82252691    -0.21400
C94         C  0.05642010  0.17228641  0.80366774    -0.21700
C95         C  0.05667869  0.14304152  0.80840284     0.01300
H96         H  0.05642488  0.21021636  0.82467451     0.15100
H97         H  0.05568994  0.18192267  0.78822098     0.15200
N98         N  0.78547486  0.86810134  0.92032757    -0.01200
C99         C  0.75827091  0.86768402  0.91221445     0.01400
C100        C  0.73789236  0.86792911  0.92807458    -0.21400
C101        C  0.75315415  0.86862048  0.94666055    -0.21700
C102        C  0.78224860  0.86878094  0.94141280     0.01300
H103        H  0.71450687  0.86796192  0.92632588     0.15100
H104        H  0.74403200  0.86925650  0.96227168     0.15200
Fe105      Fe  0.06802042  0.86257320  0.84736435     1.65800
Fe106      Fe  0.05869875  0.85464701  0.90030397     1.73200
Fe107      Fe  0.10866921  0.81537800  0.87461668     1.54400
O108        O  0.09496720  0.79583934  0.84644018    -0.79400
O109        O  0.09704775  0.86216127  0.91641360    -0.77700
O110        O  0.06186705  0.82338203  0.83212554    -0.81900
O111        O  0.11108722  0.86710445  0.83696262    -0.76700
O112        O  0.08219877  0.78508389  0.89038833    -0.78500
O113        O  0.05994459  0.89905905  0.89314528    -0.81200
C114        C  0.13563717  0.85945912  0.84347381     0.99500
C115        C  0.07625336  0.80075020  0.83238855     1.07000
O116        O  0.07843225  0.84418733  0.87410279    -1.10200
O117        O  0.01792925  0.84854277  0.88745245    -0.72600
O118        O  0.02341089  0.86095405  0.85384313    -0.76100
O119        O  0.13839239  0.84252544  0.85890884    -0.76800
C120        C  0.00760054  0.85432322  0.86966188     0.98400
O121        O  0.07311566  0.90377573  0.85958494    -0.74800
O122        O  0.05469254  0.81161291  0.91094109    -0.80000
C123        C  0.12068997  0.84943293  0.91650333     1.01100
C124        C  0.06392428  0.78735873  0.90506709     1.07000
O125        O  0.12700064  0.83078329  0.90277022    -0.75600
C126        C  0.06691342  0.91448730  0.87717988     1.05300
C127        C  0.57693822  0.90216011  0.76141825     0.82500
N128        N  0.58867176  0.90865949  0.74229054    -0.75800
C129        C  0.61799015  0.90907697  0.73950568     0.85000
N130        N  0.63549874  0.90300877  0.75584827    -0.75700
C131        C  0.62392772  0.89649026  0.77493827     0.85100
N132        N  0.59462880  0.89609348  0.77773245    -0.77400
Fe133      Fe  0.02451890  0.95031424  0.59838294     1.65800
Fe134      Fe  0.03049934  0.94596535  0.65190010     1.73200
Fe135      Fe  0.07519522  0.99392347  0.62432614     1.54400
O136        O  0.09244802  0.98118343  0.59585467    -0.79400
O137        O  0.02873923  0.98518153  0.66725806    -0.77700
O138        O  0.06290152  0.94616847  0.58240238    -0.81900
O139        O  0.02196474  0.99293055  0.58779083    -0.76700
O140        O  0.10281090  0.96747074  0.63980654    -0.78500
O141        O  0.98637368  0.94838702  0.64516888    -0.81200
C142        C  0.03155830  0.01803631  0.59385374     0.99500
C143        C  0.08597928  0.96237358  0.58186241     1.07000
O144        O  0.04335172  0.96333860  0.62487177    -1.10200
O145        O  0.03058556  0.90419724  0.64056031    -0.72600
O146        O  0.02500567  0.90627626  0.60587366    -0.76100
O147        O  0.04955168  0.02219640  0.60879830    -0.76800
C148        C  0.02778137  0.89216527  0.62279910     0.98400
O149        O  0.98341584  0.95288668  0.61042882    -0.74800
O150        O  0.07326138  0.94164282  0.66168834    -0.80000
C151        C  0.04556052  0.00784180  0.66694609     1.01100
C152        C  0.09845678  0.94987997  0.65497888     1.07000
O153        O  0.06418510  0.01292846  0.65260162    -0.75600
C154        C  0.97190499  0.95133442  0.62841262     1.05300
N155        N  0.03709844  0.66817224  0.67231999    -0.01200
C156        C  0.03457043  0.64135009  0.66362425     0.01400
C157        C  0.03929463  0.62039564  0.67854863    -0.21400
C158        C  0.04492926  0.63500912  0.69713428    -0.21700
C159        C  0.04341302  0.66427926  0.69279091     0.01300
H160        H  0.03872071  0.59708070  0.67620679     0.15100
H161        H  0.04958728  0.62533446  0.71213336     0.15200
N162        N  0.74781499  0.96454710  0.57966081    -0.01200
C163        C  0.72107172  0.96168292  0.58847530     0.01400
C164        C  0.69989622  0.96552366  0.57354573    -0.21400
C165        C  0.71423871  0.97087640  0.55483549    -0.21700
C166        C  0.74358699  0.97008575  0.55910374     0.01300
H167        H  0.67658479  0.96432186  0.57594073     0.15100
H168        H  0.70432722  0.97466688  0.53977430     0.15200
N169        N  0.32098967  0.90618651  0.74193755    -0.01200
C170        C  0.35025773  0.90736363  0.73927214     0.01400
C171        C  0.35709947  0.91223564  0.71843277    -0.21400
C172        C  0.33116659  0.91414145  0.70790391    -0.21700
C173        C  0.30952150  0.91034901  0.72273312     0.01300
H174        H  0.37865062  0.91418735  0.71161584     0.15100
H175        H  0.32843006  0.91791007  0.69129932     0.15200
N176        N  0.99928238  0.24423698  0.50805825    -0.01200
C177        C  0.00195171  0.27325099  0.51187471     0.01400
C178        C  0.01238712  0.27831550  0.53193345    -0.21400
C179        C  0.01617789  0.25150605  0.54079020    -0.21700
C180        C  0.00792916  0.23113867  0.52578310     0.01300
H181        H  0.01657253  0.29925976  0.53938940     0.15100
H182        H  0.02383811  0.24735096  0.55648229     0.15200
N183        N  0.00686848  0.60428711  0.00618365    -0.01200
C184        C  0.00380447  0.57517207  0.00965471     0.01400
C185        C  0.99383538  0.56981722  0.02979352    -0.21400
C186        C  0.99072763  0.59649332  0.03905132    -0.21700
C187        C  0.99891692  0.61712120  0.02421347     0.01300
H188        H  0.98948949  0.54875343  0.03703637     0.15100
H189        H  0.98346439  0.60038486  0.05488008     0.15200
N190        N  0.67999676  0.93076414  0.24246603    -0.01200
C191        C  0.65086735  0.92975178  0.23912778     0.01400
C192        C  0.64453956  0.91862402  0.21943039    -0.21400
C193        C  0.67067974  0.91266202  0.21032223    -0.21700
C194        C  0.69195114  0.92036247  0.22482103     0.01300
H195        H  0.62321979  0.91543633  0.21236304     0.15100
H196        H  0.67381150  0.90397107  0.19477995     0.15200
C197        C  0.17252926  0.92572257  0.68359555     0.19300
C198        C  0.17418167  0.92096442  0.70526479    -0.09800
C199        C  0.20103074  0.91625254  0.71466158    -0.10600
C200        C  0.22629754  0.91630023  0.70240707     0.20900
C201        C  0.22453280  0.92070723  0.68073052    -0.12700
C202        C  0.19775987  0.92541161  0.67136245    -0.10900
C203        C  0.25429246  0.91282840  0.71188845     0.01900
C204        C  0.27894110  0.91110694  0.71798278    -0.30900
C205        C  0.14534139  0.93222507  0.67393841     0.03200
C206        C  0.12346198  0.93930815  0.66536805    -0.32600
H207        H  0.15483726  0.92129510  0.71490181     0.14300
H208        H  0.20214603  0.91295748  0.73144699     0.14100
H209        H  0.24392962  0.92088280  0.67110822     0.14000
H210        H  0.19679996  0.92920466  0.65462645     0.13000
C211        C  0.01287143  0.09193625  0.56272412     0.19300
C212        C  0.99712827  0.11340659  0.57235640    -0.09800
C213        C  0.99494562  0.14046467  0.56270213    -0.10600
C214        C  0.00848516  0.14624963  0.54336443     0.20900
C215        C  0.02380408  0.12460641  0.53351892    -0.12700
C216        C  0.02598903  0.09749911  0.54319017    -0.10900
C217        C  0.00798155  0.17498301  0.53446243     0.01900
C218        C  0.00786351  0.20014846  0.52919575    -0.30900
C219        C  0.01702293  0.06494550  0.57345786     0.03200
C220        C  0.02239233  0.04311148  0.58281357    -0.32600
H221        H  0.98706149  0.10944686  0.58750323     0.14300
H222        H  0.98320214  0.15709668  0.57052644     0.14100
H223        H  0.03450355  0.12887214  0.51863202     0.14000
H224        H  0.03838045  0.08111217  0.53565343     0.13000
C225        C  0.88475035  0.95496473  0.62060320     0.19300
C226        C  0.86993380  0.98043808  0.62355804    -0.09800
C227        C  0.84137112  0.98207180  0.61623789    -0.10600
C228        C  0.82747322  0.95826674  0.60588768     0.20900
C229        C  0.84222742  0.93274665  0.60306230    -0.12700
C230        C  0.87075547  0.93111041  0.61038092    -0.10900
C231        C  0.79852834  0.96030060  0.59751693     0.01900
C232        C  0.77482561  0.96209774  0.58965085    -0.30900
C233        C  0.91489298  0.95388103  0.62666368     0.03200
C234        C  0.94079904  0.95278788  0.62931198    -0.32600
H235        H  0.88059868  0.99915302  0.63120523     0.14300
H236        H  0.83028041  0.00199944  0.61840040     0.14100
H237        H  0.83182332  0.91426761  0.59496674     0.14000
H238        H  0.88206382  0.91141342  0.60776589     0.13000
C239        C  0.02932844  0.74715344  0.64542954     0.19300
C240        C  0.00693308  0.76443268  0.65199025    -0.09800
C241        C  0.00583099  0.79304970  0.64474217    -0.10600
C242        C  0.02709147  0.80460216  0.63086935     0.20900
C243        C  0.04921767  0.78715964  0.62402511    -0.12700
C244        C  0.05031143  0.75850745  0.63127253    -0.10900
C245        C  0.02724724  0.83488783  0.62494898     0.01900
C246        C  0.02750387  0.86089781  0.62230636    -0.30900
C247        C  0.03154962  0.71838464  0.65404314     0.03200
C248        C  0.03392175  0.69494854  0.66217763    -0.32600
H249        H  0.99067493  0.75598291  0.66300807     0.14300
H250        H  0.98875117  0.80636784  0.65030437     0.14100
H251        H  0.06592132  0.79587878  0.61345603     0.14000
H252        H  0.06782075  0.74541603  0.62616199     0.13000
C253        C  0.42696113  0.90100522  0.76719129     0.19300
C254        C  0.44095258  0.87543012  0.76271157    -0.09800
C255        C  0.47138930  0.87531332  0.76316141    -0.10600
C256        C  0.48818063  0.90078928  0.76802972     0.20900
C257        C  0.47418694  0.92613595  0.77319031    -0.12700
C258        C  0.44371685  0.92625723  0.77272613    -0.10900
C259        C  0.51961774  0.90130429  0.76652137     0.01900
C260        C  0.54579285  0.90171321  0.76439983    -0.30900
C261        C  0.39615634  0.90236021  0.76295771     0.03200
C262        C  0.37247354  0.90411791  0.75496194    -0.32600
H263        H  0.42839344  0.85588522  0.75805380     0.14300
H264        H  0.48184485  0.85558204  0.75906237     0.14100
H265        H  0.48682875  0.94602343  0.77691684     0.14000
H266        H  0.43330276  0.94633337  0.77587956     0.13000
C267        C  0.68958763  0.94151676  0.64657416     0.19300
C268        C  0.70257134  0.94775318  0.66604933    -0.09800
C269        C  0.68728815  0.94121555  0.68461997    -0.10600
C270        C  0.65889198  0.92843423  0.68385260     0.20900
C271        C  0.64597097  0.92211746  0.66437412    -0.12700
C272        C  0.66123873  0.92864279  0.64582482    -0.10900
C273        C  0.64313974  0.92173223  0.70302112     0.01900
C274        C  0.63079681  0.91603782  0.71937260    -0.30900
C275        C  0.70476750  0.94885338  0.62728381     0.03200
C276        C  0.71456766  0.95488249  0.61014589    -0.32600
H277        H  0.72441398  0.95777467  0.66688160     0.14300
H278        H  0.69756951  0.94618775  0.69955702     0.14100
H279        H  0.62407596  0.91221893  0.66351926     0.14000
H280        H  0.65088516  0.92378160  0.63089211     0.13000
C281        C  0.05667513  0.72032361  0.74185740     0.19300
C282        C  0.08100155  0.71594219  0.75446571    -0.09800
C283        C  0.08487388  0.73098038  0.77343922    -0.10600
C284        C  0.06439655  0.75047628  0.78000137     0.20900
C285        C  0.04023779  0.75512275  0.76727537    -0.12700
C286        C  0.03636167  0.74007349  0.74829271    -0.10900
C287        C  0.06838331  0.76605036  0.79956953     0.01900
C288        C  0.07185398  0.78051424  0.81529443    -0.30900
C289        C  0.05187631  0.70336532  0.72297714     0.03200
C290        C  0.04789514  0.68698214  0.70831264    -0.32600
H291        H  0.09681063  0.70064420  0.74974402     0.14300
H292        H  0.10372203  0.72728540  0.78303131     0.14100
H293        H  0.02431469  0.77025322  0.77208267     0.14000
H294        H  0.01739900  0.74358832  0.73877228     0.13000
C295        C  0.02928777  0.66067664  0.96002125     0.19300
C296        C  0.00649563  0.67631436  0.95195409    -0.09800
C297        C  0.01247747  0.70165539  0.94016915    -0.10600
C298        C  0.04132360  0.71167502  0.93638001     0.20900
C299        C  0.06413522  0.69578157  0.94415080    -0.12700
C300        C  0.05814874  0.67043334  0.95595147    -0.10900
C301        C  0.04757936  0.73858239  0.92504801     0.01900
C302        C  0.05394950  0.76109093  0.91587674    -0.30900
C303        C  0.02292816  0.63647049  0.97409892     0.03200
C304        C  0.01615510  0.61951786  0.98800078    -0.32600
H305        H  0.98408837  0.66929116  0.95518613     0.14300
H306        H  0.99461274  0.71369372  0.93432696     0.14100
H307        H  0.08654402  0.70325914  0.94139988     0.14000
H308        H  0.07600772  0.65883837  0.96228857     0.13000
C309        C  0.21050536  0.88276151  0.81148595     0.19300
C310        C  0.23529220  0.86719380  0.81543021    -0.09800
C311        C  0.26065848  0.87257172  0.80353570    -0.10600
C312        C  0.26144726  0.89360074  0.78761987     0.20900
C313        C  0.23674730  0.90934252  0.78382838    -0.12700
C314        C  0.21142126  0.90397490  0.79570731    -0.10900
C315        C  0.28658849  0.89781614  0.77411644     0.01900
C316        C  0.30449066  0.90157387  0.76035561    -0.30900
C317        C  0.18390597  0.87628522  0.82310168     0.03200
C318        C  0.16166002  0.86966753  0.83249944    -0.32600
H319        H  0.23487584  0.85061910  0.82749522     0.14300
H320        H  0.27943131  0.86001616  0.80650954     0.14100
H321        H  0.23689431  0.92542122  0.77141921     0.14000
H322        H  0.19243637  0.91606578  0.79238012     0.13000
C323        C  0.72052384  0.87424863  0.85536428     0.19300
C324        C  0.70989483  0.85031957  0.84346825    -0.09800
C325        C  0.69010490  0.85419538  0.82712898    -0.10600
C326        C  0.68072478  0.88199939  0.82264909     0.20900
C327        C  0.69160263  0.90592467  0.83440578    -0.12700
C328        C  0.71137019  0.90205952  0.85070177    -0.10900
C329        C  0.65989901  0.88611392  0.80611426     0.01900
C330        C  0.64292192  0.89043909  0.79215016    -0.30900
C331        C  0.73871641  0.87019566  0.87346996     0.03200
C332        C  0.75050036  0.86821693  0.89029771    -0.32600
H333        H  0.71649373  0.82864977  0.84704923     0.14300
H334        H  0.68188424  0.83550526  0.81816445     0.14100
H335        H  0.68455913  0.92752454  0.83112658     0.14000
H336        H  0.71911177  0.92069359  0.85991757     0.13000
C337        C  0.92014218  0.85716643  0.87598705     0.19300
C338        C  0.90447135  0.88123037  0.87027741    -0.09800
C339        C  0.87617397  0.88401738  0.87791499    -0.10600
C340        C  0.86342236  0.86279687  0.89134771     0.20900
C341        C  0.87890870  0.83851264  0.89669526    -0.12700
C342        C  0.90711318  0.83572399  0.88906978    -0.10900
C343        C  0.83503090  0.86620545  0.90041043     0.01900
C344        C  0.81189901  0.86766782  0.90922434    -0.30900
C345        C  0.95034739  0.85553056  0.87009956     0.03200
C346        C  0.97638230  0.85443161  0.86799902    -0.32600
H347        H  0.91434802  0.89812793  0.86034977     0.14300
H348        H  0.86450017  0.90295067  0.87368990     0.14100
H349        H  0.86939194  0.82200023  0.90710587     0.14000
H350        H  0.91903252  0.81717214  0.89379586     0.13000
C351        C  0.04724749  0.05852742  0.71956924     0.19300
C352        C  0.02265833  0.06073891  0.73232233    -0.09800
C353        C  0.02492159  0.07553785  0.75151404    -0.10600
C354        C  0.05181348  0.08815219  0.75815933     0.20900
C355        C  0.07638913  0.08593872  0.74540128    -0.12700
C356        C  0.07412757  0.07115127  0.72622008    -0.10900
C357        C  0.05395046  0.10453172  0.77751080     0.01900
C358        C  0.05551430  0.12041752  0.79262749    -0.30900
C359        C  0.04517996  0.04256412  0.70003025     0.03200
C360        C  0.04450948  0.02784002  0.68430038    -0.32600
H361        H  0.00176902  0.05100360  0.72745084     0.14300
H362        H  0.00568799  0.07725945  0.76111262     0.14100
H363        H  0.09726331  0.09576224  0.75023004     0.14000
H364        H  0.09334970  0.06953005  0.71659266     0.13000
C365        C  0.06270351  0.00173742  0.87029718     0.19300
C366        C  0.04157599  0.00871395  0.85558026    -0.09800
C367        C  0.03988648  0.03739801  0.84862287    -0.10600
C368        C  0.05929850  0.05940725  0.85631099     0.20900
C369        C  0.08022084  0.05255600  0.87124555    -0.12700
C370        C  0.08192897  0.02379142  0.87821101    -0.10900
C371        C  0.05842163  0.08861340  0.84811878     0.01900
C372        C  0.05775154  0.11229111  0.83998429    -0.30900
C373        C  0.06542944  0.97168036  0.87615333     0.03200
C374        C  0.06676009  0.94571228  0.87844468    -0.32600
H375        H  0.02672283  0.99187720  0.84920800     0.14300
H376        H  0.02372544  0.04232892  0.83699345     0.14100
H377        H  0.09546445  0.06932120  0.87724007     0.14000
H378        H  0.09850451  0.01868879  0.88947277     0.13000
C379        C  0.98946253  0.35173213  0.48764098     0.19300
C380        C  0.96282301  0.36356468  0.48284174    -0.09800
C381        C  0.96085230  0.39387180  0.48172448    -0.10600
C382        C  0.98546560  0.41256932  0.48548014     0.20900
C383        C  0.01213254  0.40068089  0.48998309    -0.12700
C384        C  0.01410297  0.37046584  0.49107638    -0.10900
C385        C  0.98340453  0.44387434  0.48552501     0.01900
C386        C  0.98287850  0.47013273  0.48645788    -0.30900
C387        C  0.99123483  0.32080952  0.49127733     0.03200
C388        C  0.99486241  0.29672170  0.49807307    -0.32600
H389        H  0.94349043  0.34943859  0.48045810     0.14300
H390        H  0.94004311  0.40271062  0.47832527     0.14100
H391        H  0.03130033  0.41478270  0.49303468     0.14000
H392        H  0.03474378  0.36171742  0.49512335     0.13000
C393        C  0.01723274  0.61262182  0.60419398     0.19300
C394        C  0.98874948  0.60930176  0.59640967    -0.09800
C395        C  0.98322476  0.59504149  0.57729792    -0.10600
C396        C  0.00612019  0.58392534  0.56586100     0.20900
C397        C  0.03461657  0.58740850  0.57358492    -0.12700
C398        C  0.04013817  0.60166525  0.59268532    -0.10900
C399        C  0.00039509  0.56893020  0.54626844     0.01900
C400        C  0.99559085  0.55675598  0.52973663    -0.30900
C401        C  0.02284338  0.62591653  0.62441567     0.03200
C402        C  0.02797955  0.63477833  0.64193669    -0.32600
H403        H  0.97081051  0.61746705  0.60519694     0.14300
H404        H  0.96109386  0.59252086  0.57151211     0.14100
H405        H  0.05251861  0.57895038  0.56492001     0.14000
H406        H  0.06223043  0.60388628  0.59857960     0.13000
C407        C  0.79861851  0.98067169  0.50928191     0.19300
C408        C  0.79655786  0.95897643  0.49383395    -0.09800
C409        C  0.81098498  0.96313949  0.47465098    -0.10600
C410        C  0.82752173  0.98908000  0.47073915     0.20900
C411        C  0.82988480  0.01062959  0.48628891    -0.12700
C412        C  0.81545006  0.00646731  0.50547463    -0.10900
C413        C  0.84237276  0.99350489  0.45094460     0.01900
C414        C  0.85629986  0.99765643  0.43505509    -0.30900
C415        C  0.78210587  0.97706533  0.52844929     0.03200
C416        C  0.76602473  0.97397086  0.54335102    -0.32600
H417        H  0.78350178  0.93899487  0.49651783     0.14300
H418        H  0.80908440  0.94623881  0.46283877     0.14100
H419        H  0.84272104  0.03072546  0.48352681     0.14000
H420        H  0.81712234  0.02348047  0.51721322     0.13000
C421        C  0.73809783  0.95401899  0.28719585     0.19300
C422        C  0.73586698  0.97150918  0.30504612    -0.09800
C423        C  0.76050043  0.97828664  0.31744650    -0.10600
C424        C  0.78747905  0.96761170  0.31207005     0.20900
C425        C  0.78960450  0.94999576  0.29429823    -0.12700
C426        C  0.76504410  0.94323836  0.28193030    -0.10900
C427        C  0.81316794  0.97536884  0.32432867     0.01900
C428        C  0.83503425  0.98264626  0.33393302    -0.30900
C429        C  0.71332025  0.94754018  0.27373287     0.03200
C430        C  0.69592244  0.94053132  0.26019895    -0.32600
H431        H  0.71523134  0.98008765  0.30925866     0.14300
H432        H  0.75857208  0.99203922  0.33109410     0.14100
H433        H  0.81030024  0.94170389  0.28988922     0.14000
H434        H  0.76712686  0.92980587  0.26812114     0.13000
C435        C  0.96137260  0.13765929  0.43839408     0.19300
C436        C  0.94500566  0.16237758  0.43661449    -0.09800
C437        C  0.95227112  0.18732899  0.44857909    -0.10600
C438        C  0.97599826  0.18773440  0.46238080     0.20900
C439        C  0.99251241  0.16312332  0.46395883    -0.12700
C440        C  0.98526208  0.13823370  0.45202427    -0.10900
C441        C  0.98259005  0.21232837  0.47603410     0.01900
C442        C  0.98963270  0.22928911  0.48985743    -0.30900
C443        C  0.95317001  0.11143731  0.42679838     0.03200
C444        C  0.94550358  0.08938216  0.41751472    -0.32600
H445        H  0.92640082  0.16221770  0.42620487     0.14300
H446        H  0.93914502  0.20605063  0.44732234     0.14100
H447        H  0.01072824  0.16299187  0.47471534     0.14000
H448        H  0.99803429  0.11930627  0.45365202     0.13000
C449        C  0.95795357  0.64469679  0.39327625     0.19300
C450        C  0.95358429  0.61476308  0.38939209    -0.09800
C451        C  0.95771631  0.59457830  0.40537142    -0.10600
C452        C  0.96628763  0.60413368  0.42539262     0.20900
C453        C  0.97049755  0.63408264  0.42934270    -0.12700
C454        C  0.96637589  0.65430729  0.41332770    -0.10900
C455        C  0.97088900  0.58326095  0.44181785     0.01900
C456        C  0.97482913  0.56639584  0.45593036    -0.30900
C457        C  0.95510059  0.66503518  0.37625081     0.03200
C458        C  0.95382405  0.67826923  0.35995138    -0.32600
H459        H  0.94727504  0.60701167  0.37392751     0.14300
H460        H  0.95440538  0.57153365  0.40207499     0.14100
H461        H  0.97714315  0.64177561  0.44474735     0.14000
H462        H  0.97002737  0.67734255  0.41652090     0.13000
C463        C  0.93424229  0.84922980  0.37213474     0.19300
C464        C  0.96102885  0.83680190  0.37531797    -0.09800
C465        C  0.96504864  0.80824659  0.36871819    -0.10600
C466        C  0.94231224  0.79190977  0.35886553     0.20900
C467        C  0.91536949  0.80414842  0.35606186    -0.12700
C468        C  0.91135500  0.83267699  0.36265166    -0.10900
C469        C  0.94697524  0.76335471  0.35047846     0.01900
C470        C  0.95013467  0.74028566  0.34192918    -0.30900
C471        C  0.93098252  0.87957727  0.37698307     0.03200
C472        C  0.92930367  0.90558408  0.37889533    -0.32600
H473        H  0.97900835  0.84941221  0.38243552     0.14300
H474        H  0.98604379  0.79916477  0.37087295     0.14100
H475        H  0.89766202  0.79186744  0.34835054     0.14000
H476        H  0.89063479  0.84205375  0.35989237     0.13000
C477        C  0.16119512  0.96722987  0.48841804     0.19300
C478        C  0.17530962  0.95616389  0.50593933    -0.09800
C479        C  0.16113378  0.95402433  0.52534448    -0.10600
C480        C  0.13267797  0.96293801  0.52742585     0.20900
C481        C  0.11851496  0.97399047  0.50989941    -0.12700
C482        C  0.13271182  0.97613485  0.49046616    -0.10900
C483        C  0.11809104  0.96107471  0.54751145     0.01900
C484        C  0.10466348  0.96061404  0.56382448    -0.30900
C485        C  0.17636199  0.96965081  0.46858479     0.03200
C486        C  0.19194278  0.97089289  0.45330948    -0.32600
H487        H  0.19735302  0.94926514  0.50461180     0.14300
H488        H  0.17238776  0.94551043  0.53871759     0.14100
H489        H  0.09653056  0.98103125  0.51127363     0.14000
H490        H  0.12154453  0.98479245  0.47710496     0.13000
C491        C  0.13337547  0.98485423  0.38956414     0.19300
C492        C  0.12043314  0.96607839  0.37449625    -0.09800
C493        C  0.09197567  0.96998656  0.36762083    -0.10600
C494        C  0.07634210  0.99273368  0.37574294     0.20900
C495        C  0.08948466  0.01172293  0.39056048    -0.12700
C496        C  0.11786367  0.00781283  0.39742892    -0.10900
C497        C  0.04612912  0.99533218  0.37033109     0.01900
C498        C  0.02012455  0.99680692  0.36848129    -0.30900
C499        C  0.16198212  0.98004124  0.39772572     0.03200
C500        C  0.18520503  0.97669119  0.40596622    -0.32600
H501        H  0.13211276  0.94814803  0.36836301     0.14300
H502        H  0.08197810  0.95494732  0.35633556     0.14100
H503        H  0.07755977  0.02918269  0.39714936     0.14000
H504        H  0.12751719  0.02238025  0.40916110     0.13000
C505        C  0.01739676  0.49702531  0.98493915     0.19300
C506        C  0.99510265  0.47972129  0.97533654    -0.09800
C507        C  0.99664407  0.44935227  0.97446136    -0.10600
C508        C  0.02044218  0.43595903  0.98325835     0.20900
C509        C  0.04301211  0.45332681  0.99243551    -0.12700
C510        C  0.04148250  0.48365367  0.99329505    -0.10900
C511        C  0.02101871  0.40446431  0.98391003     0.01900
C512        C  0.02113453  0.37820294  0.98548594    -0.30900
C513        C  0.01407993  0.52778805  0.98858799     0.03200
C514        C  0.01025824  0.55180017  0.99551507    -0.32600
H515        H  0.97611490  0.48959921  0.96909431     0.14300
H516        H  0.97894292  0.43628251  0.96741000     0.14100
H517        H  0.06147253  0.44337046  0.99941134     0.14000
H518        H  0.05866840  0.49659168  0.00106478     0.13000
C519        C  0.05070943  0.20234388  0.89547613     0.19300
C520        C  0.07479643  0.21423050  0.90666673    -0.09800
C521        C  0.07088405  0.23401675  0.92302813    -0.10600
C522        C  0.04287519  0.24216806  0.92826277     0.20900
C523        C  0.01880404  0.22988623  0.91729936    -0.12700
C524        C  0.02270685  0.21012659  0.90098302    -0.10900
C525        C  0.03866519  0.26334178  0.94461939     0.01900
C526        C  0.03398243  0.28064074  0.95834293    -0.30900
C527        C  0.05467147  0.18448016  0.87713320     0.03200
C528        C  0.05664142  0.17311266  0.86012717    -0.32600
H529        H  0.09659728  0.20870619  0.90246051     0.14300
H530        H  0.08971142  0.24328436  0.93136345     0.14100
H531        H  0.99704010  0.23592398  0.92115106     0.14000
H532        H  0.00390672  0.20141107  0.89234533     0.13000
C533        C  0.95855953  0.76693361  0.25990594     0.19300
C534        C  0.93706815  0.76132442  0.24464553    -0.09800
C535        C  0.93956540  0.77459724  0.22495798    -0.10600
C536        C  0.96364007  0.79349546  0.22033761     0.20900
C537        C  0.98508941  0.79925729  0.23562708    -0.12700
C538        C  0.98259737  0.78594721  0.25534282    -0.10900
C539        C  0.96559567  0.80784951  0.20024643     0.01900
C540        C  0.96550758  0.82150331  0.18409012    -0.30900
C541        C  0.95677387  0.75153491  0.27959438     0.03200
C542        C  0.95552608  0.73546455  0.29455864    -0.32600
H543        H  0.91852322  0.74646511  0.24789882     0.14300
H544        H  0.92273327  0.77011996  0.21334379     0.14100
H545        H  0.00370304  0.81399287  0.23230682     0.14000
H546        H  0.99950021  0.79026076  0.26692735     0.13000
C547        C  0.83664265  0.87566392  0.99158966     0.19300
C548        C  0.82234875  0.86844339  0.01045686    -0.09800
C549        C  0.83704552  0.87179919  0.02960244    -0.10600
C550        C  0.86615242  0.88248562  0.03005862     0.20900
C551        C  0.88044005  0.88978274  0.01119706    -0.12700
C552        C  0.86573048  0.88642447  0.99203497    -0.10900
C553        C  0.88171974  0.88491889  0.04972088     0.01900
C554        C  0.89621953  0.88554501  0.06554020    -0.30900
C555        C  0.82104303  0.87259280  0.97197629     0.03200
C556        C  0.80529458  0.87041576  0.95682342    -0.32600
H557        H  0.79983121  0.86021363  0.01036321     0.14300
H558        H  0.82576267  0.86592572  0.04402098     0.14100
H559        H  0.90298146  0.89792186  0.01129867     0.14000
H560        H  0.87702119  0.89220077  0.97760362     0.13000
C561        C  0.99626588  0.70205948  0.04183846     0.19300
C562        C  0.96907873  0.71419151  0.04303306    -0.09800
C563        C  0.96638978  0.74109604  0.05283620    -0.10600
C564        C  0.99085371  0.75608104  0.06154978     0.20900
C565        C  0.01815394  0.74419020  0.06008122    -0.12700
C566        C  0.02084705  0.71723715  0.05025963    -0.10900
C567        C  0.98749442  0.78305456  0.07259218     0.01900
C568        C  0.98240652  0.80490758  0.08207526    -0.30900
C569        C  0.99843456  0.67320368  0.03334396     0.08000
C570        C  0.99914973  0.64808494  0.02798946    -0.32600
H571        H  0.94987139  0.70259355  0.03675393     0.14300
H572        H  0.94514595  0.74998915  0.05392617     0.14100
H573        H  0.03721790  0.75549411  0.06680900     0.14000
H574        H  0.04195146  0.70798950  0.04959447     0.13000
C575        C  0.83122727  0.91054025  0.18800504     0.19300
C576        C  0.82307816  0.89302381  0.20526070    -0.09800
C577        C  0.79580013  0.89540335  0.21467231    -0.10600
C578        C  0.77653257  0.91531035  0.20686976     0.20900
C579        C  0.78484013  0.93300128  0.18977310    -0.12700
C580        C  0.81206469  0.93063049  0.18038237    -0.10900
C581        C  0.74772475  0.91682310  0.21558442     0.01900
C582        C  0.72271072  0.91836998  0.22098188    -0.30900
C583        C  0.85856641  0.90698141  0.17748521     0.03200
C584        C  0.88064287  0.90260517  0.16803823    -0.32600
H585        H  0.83761048  0.87726497  0.21122987     0.14300
H586        H  0.78958930  0.88147073  0.22779549     0.14100
H587        H  0.77008652  0.94833476  0.18350223     0.14000
H588        H  0.81798977  0.94415629  0.16698657     0.13000
C589        C  0.93965441  0.13182848  0.24313855     0.19300
C590        C  0.92875121  0.14633229  0.26055086    -0.09800
C591        C  0.92534813  0.13200607  0.27984993    -0.10600
C592        C  0.93286505  0.10305772  0.28190740     0.20900
C593        C  0.94375025  0.08855679  0.26449533    -0.12700
C594        C  0.94715136  0.10288106  0.24519723    -0.10900
C595        C  0.92892504  0.08789078  0.30164357     0.01900
C596        C  0.92535484  0.07317955  0.31724031    -0.30900
C597        C  0.94355979  0.14698011  0.22339095     0.03200
C598        C  0.94676496  0.16202626  0.20792880    -0.32600
H599        H  0.92292560  0.16873283  0.25921210     0.14300
H600        H  0.91682530  0.14347272  0.29312644     0.14100
H601        H  0.94955970  0.06615301  0.26583143     0.14000
H602        H  0.95565505  0.09140924  0.23191773     0.13000
C603        C  0.97652522  0.23590800  0.10325427     0.19300
C604        C  0.00549418  0.24428312  0.09838328    -0.09800
C605        C  0.01223066  0.25938676  0.07979328    -0.10600
C606        C  0.99005014  0.26634160  0.06591463     0.20900
C607        C  0.96104926  0.25801590  0.07078651    -0.12700
C608        C  0.95430541  0.24290244  0.08939997    -0.10900
C609        C  0.99719038  0.28154142  0.04658053     0.01900
C610        C  0.00377223  0.29340237  0.03019517    -0.30900
C611        C  0.96959188  0.22154967  0.12293858     0.03200
C612        C  0.96413298  0.21214769  0.14028340    -0.32600
H613        H  0.02287121  0.23929784  0.10902350     0.14300
H614        H  0.03472574  0.26565325  0.07625218     0.14100
H615        H  0.94366472  0.26322021  0.06021773     0.14000
H616        H  0.93179562  0.23684064  0.09304094     0.13000
C617        C  0.96983612  0.04334040  0.12958988     0.19300
C618        C  0.94619650  0.05944609  0.12370130    -0.09800
C619        C  0.94392788  0.08784952  0.13120986    -0.10600
C620        C  0.96524560  0.10030601  0.14468634     0.20900
C621        C  0.98913641  0.08438046  0.15025999    -0.12700
C622        C  0.99141145  0.05601692  0.14275144    -0.10900
C623        C  0.96210275  0.12889140  0.15346280     0.01900
C624        C  0.95933504  0.15236188  0.16149458    -0.30900
C625        C  0.97092754  0.01315547  0.12358391     0.03200
C626        C  0.97174662  0.98718756  0.12104472    -0.32600
H627        H  0.92923896  0.04984858  0.11369578     0.14300
H628        H  0.92529883  0.09987872  0.12682374     0.14100
H629        H  0.00571574  0.09368321  0.16071109     0.14000
H630        H  0.00966866  0.04374163  0.14758408     0.13000
C631        C  0.20364523  0.88134731  0.00458997     0.19300
C632        C  0.17612997  0.89234286  0.00171621    -0.09800
C633        C  0.16036036  0.88608386  0.98328998    -0.10600
C634        C  0.17199745  0.86882623  0.96758039     0.20900
C635        C  0.19952941  0.85792322  0.97045380    -0.12700
C636        C  0.21527609  0.86417350  0.98885262    -0.10900
C637        C  0.15553662  0.86196027  0.94871400     0.01900
C638        C  0.14073548  0.85610872  0.93344038    -0.30900
C639        C  0.22028681  0.88779524  0.02343752     0.03200
C640        C  0.23639667  0.89249252  0.03819341    -0.32600
H641        H  0.16688054  0.90570998  0.01368999     0.14300
H642        H  0.13908525  0.89463822  0.98131638     0.14100
H643        H  0.20879908  0.84453946  0.95849936     0.14000
H644        H  0.23654324  0.85559468  0.99081054     0.13000
C645        C  0.11935056  0.90127783  0.11898421     0.19300
C646        C  0.13423059  0.92768356  0.11369227    -0.09800
C647        C  0.16263075  0.92791614  0.10580313    -0.10600
C648        C  0.17633399  0.90173729  0.10312066     0.20900
C649        C  0.16167332  0.87538396  0.10878983    -0.12700
C650        C  0.13327216  0.87515054  0.11667654    -0.10900
C651        C  0.20484589  0.90177902  0.09371120     0.01900
C652        C  0.22820291  0.90157467  0.08510339    -0.30900
C653        C  0.08907699  0.90079607  0.12497746     0.03200
C654        C  0.06304682  0.90039585  0.12754136    -0.32600
H655        H  0.12363639  0.94800961  0.11518817     0.14300
H656        H  0.17366414  0.94842487  0.10140470     0.14100
H657        H  0.17196666  0.85498710  0.10671564     0.14000
H658        H  0.12193675  0.85456431  0.12049476     0.13000
C659        C  0.51361169  0.95346698  0.26449614     0.19300
C660        C  0.53167964  0.97615236  0.25613795    -0.09800
C661        C  0.56196658  0.97406052  0.25576044    -0.10600
C662        C  0.57451480  0.94929552  0.26379265     0.20900
C663        C  0.55650619  0.92704577  0.27276129    -0.12700
C664        C  0.52622636  0.92914054  0.27314504    -0.10900
C665        C  0.60500870  0.94487633  0.26006215     0.01900
C666        C  0.62845320  0.93913095  0.25305849    -0.30900
C667        C  0.48221326  0.95428763  0.26308793     0.03200
C668        C  0.45599000  0.95402462  0.26118478    -0.32600
H669        H  0.52231322  0.99505290  0.24932136     0.14300
H670        H  0.57548602  0.99123809  0.24847763     0.14100
H671        H  0.56576547  0.90756347  0.27873377     0.14000
H672        H  0.51260775  0.91137974  0.27959204     0.13000
C673        C  0.31247533  0.91906806  0.14247796     0.19300
C674        C  0.32786348  0.94580307  0.14598723    -0.09800
C675        C  0.34307495  0.95085874  0.16477521    -0.10600
C676        C  0.34312287  0.92920746  0.18022202     0.20900
C677        C  0.32765832  0.90248375  0.17675860    -0.12700
C678        C  0.31243665  0.89742006  0.15794740    -0.10900
C679        C  0.35870301  0.93457872  0.19966793     0.01900
C680        C  0.37093303  0.93945583  0.21619478    -0.30900
C681        C  0.29805136  0.91351269  0.12260803     0.03200
C682        C  0.28856022  0.90924210  0.10512481    -0.32600
H683        H  0.32829343  0.96265623  0.13413095     0.14300
H684        H  0.35486839  0.97162867  0.16722580     0.14100
H685        H  0.32744056  0.88555822  0.18855432     0.14000
H686        H  0.30083996  0.87656903  0.15540823     0.13000
C687        C  0.31894460  0.96531173  0.31975861     0.19300
C688        C  0.31410565  0.99258559  0.32848718    -0.09800
C689        C  0.29339831  0.99506383  0.34440552    -0.10600
C690        C  0.27726923  0.97031583  0.35166958     0.20900
C691        C  0.28181102  0.94312325  0.34270700    -0.12700
C692        C  0.30250861  0.94064499  0.32680268    -0.10900
C693        C  0.25834912  0.97228230  0.36965719     0.01900
C694        C  0.24619829  0.97286035  0.38644828    -0.30900
C695        C  0.34076341  0.96253983  0.30367069     0.03200
C696        C  0.35833377  0.95965796  0.28982863    -0.32600
H697        H  0.32659539  0.01184728  0.32319457     0.14300
H698        H  0.29041668  0.01617002  0.35135123     0.14100
H699        H  0.26980941  0.92375004  0.34832240     0.14000
H700        H  0.30596448  0.91942949  0.32019698     0.13000
loop_ 
_geom_bond_atom_site_label_1 
_geom_bond_atom_site_label_2 
_geom_bond_distance 
_geom_bond_site_symmetry_2 
_ccdc_geom_bond_type 
C1            N2   1.362       .  A
C1            N6   1.362       .  A
C1          C668   1.447       .  S
N2            C3   1.360       .  A
C3            N4   1.357       .  A
C3          C680   1.443       .  S
N4            C5   1.357       .  A
C5            N6   1.361       .  A
C5          C696   1.443       .  S
N7           C11   1.354       .  A
N7            C8   1.354       .  A
N7          C652   1.407       .  S
C8          C682   1.447       .  S
C8            C9   1.381       .  A
C9           C10   1.381       .  A
C9           H12   1.082       .  S
C10          C11   1.381       .  A
C10          H13   1.082       .  S
C11         C640   1.448       .  S
N14          C18   1.354       .  A
N14          C15   1.354       .  A
N14         C624   1.408       .  S
C15         C612   1.446       .  S
C15          C16   1.381       .  A
C16          C17   1.379       .  A
C16          H19   1.082       .  S
C17          C18   1.381       .  A
C17          H20   1.082       .  S
C18         C598   1.447       .  S
Fe21         O37   2.053       .  S
Fe21         O27   2.089       .  S
Fe21         O34   2.086   1_655  S
Fe21         O26   2.054       .  S
Fe21         O32   1.977       .  S
Fe22         O25   2.059       .  S
Fe22         O29   2.088       .  S
Fe22         O33   2.054   1_655  S
Fe22         O38   2.087       .  S
Fe22         O32   1.977       .  S
Fe23         O41   2.080       .  S
Fe23         O28   2.060       .  S
Fe23         O35   2.059       .  S
Fe23         O24   2.079       .  S
Fe23         O32   1.974       .  S
O24          C31   1.268       .  A
O25          C39   1.264       .  A
O26          C31   1.263       .  A
O27          C30   1.274       .  A
O28          C40   1.269       .  A
O29          C42   1.272       .  A
C30         C584   1.439       .  S
C30          O35   1.269       .  A
C31         C540   1.437       .  S
O33          C36   1.265       .  A
O34          C36   1.271       .  A
C36         C654   1.439       .  S
O37          C42   1.265       .  A
O38          C40   1.273       .  A
C39         C554   1.441       .  S
C39          O41   1.268       .  A
C40         C568   1.439       .  S
C42         C626   1.440       .  S
C43          N44   1.362       .  A
C43          N48   1.361   1_556  A
C43         C512   1.448       .  S
N44          C45   1.362       .  A
C45          N46   1.358       .  A
C45         C526   1.444       .  S
N46          C47   1.357   1_556  A
C47          N48   1.360       .  A
C47         C610   1.443       .  S
N49          C53   1.355       .  A
N49          C50   1.355       .  A
N49         C500   1.408       .  S
C50         C694   1.446       .  S
C50          C51   1.381       .  A
C51          C52   1.378       .  A
C51          H54   1.082       .  S
C52          C53   1.380       .  A
C52          H55   1.082       .  S
C53         C486   1.447       .  S
N56          C60   1.353       .  A
N56          C57   1.354       .  A
N56         C470   1.409       .  S
C57         C458   1.443       .  S
C57          C58   1.381       .  A
C58          C59   1.377       .  A
C58          H61   1.082       .  S
C59          C60   1.380       .  A
C59          H62   1.082       .  S
C60         C542   1.443       .  S
Fe63         O79   2.057       .  S
Fe63         O69   2.083       .  S
Fe63         O76   2.085       .  S
Fe63         O68   2.058   1_565  S
Fe63         O74   1.982   1_565  S
Fe64         O67   2.055       .  S
Fe64         O71   2.087       .  S
Fe64         O75   2.053   1_565  S
Fe64         O80   2.087   1_565  S
Fe64         O74   1.981   1_565  S
Fe65         O83   2.085       .  S
Fe65         O70   2.063       .  S
Fe65         O77   2.064       .  S
Fe65         O66   2.085       .  S
Fe65         O74   1.984       .  S
O66          C73   1.270       .  A
O67          C81   1.264   1_565  A
O68          C73   1.265       .  A
O69          C72   1.271       .  A
O70          C82   1.268       .  A
O71          C84   1.272       .  A
C72         C428   1.441       .  S
C72          O77   1.268   1_565  A
C73         C596   1.441       .  S
O75          C78   1.265   1_545  A
O76          C78   1.270       .  A
C78         C498   1.439   1_655  S
O79          C84   1.266       .  A
O80          C82   1.272       .  A
C81         C414   1.440   1_545  S
C81          O83   1.270       .  A
C82         C444   1.443       .  S
C84         C472   1.442       .  S
C85          N86   1.361       .  A
C85          N90   1.360       .  A
C85         C386   1.445       .  S
N86          C87   1.361       .  A
C87          N88   1.357       .  A
C87         C456   1.441       .  S
N88          C89   1.356       .  A
C89          N90   1.359       .  A
C89         C400   1.441       .  S
N91          C95   1.355       .  A
N91          C92   1.355       .  A
N91         C372   1.408       .  S
C92         C528   1.447       .  S
C92          C93   1.381       .  A
C93          C94   1.379       .  A
C93          H96   1.082       .  S
C94          C95   1.380       .  A
C94          H97   1.082       .  S
C95         C358   1.447       .  S
N98         C102   1.354       .  A
N98          C99   1.354       .  A
N98         C344   1.409       .  S
C99         C332   1.444       .  S
C99         C100   1.381       .  A
C100        C101   1.378       .  A
C100        H103   1.082       .  S
C101        C102   1.380       .  A
C101        H104   1.082       .  S
C102        C556   1.445       .  S
Fe105       O121   2.052       .  S
Fe105       O111   2.090       .  S
Fe105       O118   2.092       .  S
Fe105       O110   2.055       .  S
Fe105       O116   1.976       .  S
Fe106       O109   2.055       .  S
Fe106       O113   2.092       .  S
Fe106       O117   2.053       .  S
Fe106       O122   2.092       .  S
Fe106       O116   1.976       .  S
Fe107       O125   2.092       .  S
Fe107       O112   2.062       .  S
Fe107       O119   2.061       .  S
Fe107       O108   2.092       .  S
Fe107       O116   1.976       .  S
O108        C115   1.272       .  A
O109        C123   1.265       .  A
O110        C115   1.266       .  A
O111        C114   1.272       .  A
O112        C124   1.268       .  A
O113        C126   1.273       .  A
C114        C318   1.443       .  S
C114        O119   1.267       .  A
C115        C288   1.441       .  S
O117        C120   1.265       .  A
O118        C120   1.272       .  A
C120        C346   1.441   1_455  S
O121        C126   1.266       .  A
O122        C124   1.273       .  A
C123        C638   1.443       .  S
C123        O125   1.272       .  A
C124        C302   1.444       .  S
C126        C374   1.440       .  S
C127        N128   1.362       .  A
C127        N132   1.360       .  A
C127        C260   1.445       .  S
N128        C129   1.360       .  A
C129        N130   1.357       .  A
C129        C274   1.442       .  S
N130        C131   1.357       .  A
C131        N132   1.360       .  A
C131        C330   1.441       .  S
Fe133       O149   2.052   1_455  S
Fe133       O139   2.084       .  S
Fe133       O146   2.084       .  S
Fe133       O138   2.059       .  S
Fe133       O144   1.977       .  S
Fe134       O137   2.060       .  S
Fe134       O141   2.085   1_455  S
Fe134       O145   2.054       .  S
Fe134       O150   2.085       .  S
Fe134       O144   1.978       .  S
Fe135       O153   2.081   1_565  S
Fe135       O140   2.061       .  S
Fe135       O147   2.060   1_565  S
Fe135       O136   2.081       .  S
Fe135       O144   1.974       .  S
O136        C143   1.267       .  A
O137        C151   1.264   1_565  A
O138        C143   1.264       .  A
O139        C142   1.274   1_565  A
O140        C152   1.271       .  A
O141        C154   1.271       .  A
C142        C220   1.436       .  S
C142        O147   1.271       .  A
C143        C484   1.442       .  S
O145        C148   1.265       .  A
O146        C148   1.271       .  A
C148        C246   1.439       .  S
O149        C154   1.265       .  A
O150        C152   1.274       .  A
C151        C360   1.443       .  S
C151        O153   1.267       .  A
C152        C206   1.437       .  S
C154        C234   1.439       .  S
N155        C159   1.353       .  A
N155        C156   1.353       .  A
N155        C248   1.407       .  S
C156        C402   1.445       .  S
C156        C157   1.381       .  A
C157        C158   1.381       .  A
C157        H160   1.082       .  S
C158        C159   1.381       .  A
C158        H161   1.082       .  S
C159        C290   1.446       .  S
N162        C166   1.353       .  A
N162        C163   1.353       .  A
N162        C232   1.407       .  S
C163        C276   1.446       .  S
C163        C164   1.381       .  A
C164        C165   1.380       .  A
C164        H167   1.082       .  S
C165        C166   1.381       .  A
C165        H168   1.082       .  S
C166        C416   1.446       .  S
N169        C173   1.352       .  A
N169        C170   1.356       .  A
N169        C316   1.409       .  S
C170        C262   1.445       .  S
C170        C171   1.382       .  A
C171        C172   1.377       .  A
C171        H174   1.083       .  S
C172        C173   1.378       .  A
C172        H175   1.082       .  S
C173        C204   1.442       .  S
N176        C180   1.352   1_655  A
N176        C177   1.356   1_655  A
N176        C442   1.409       .  S
C177        C388   1.445   1_455  S
C177        C178   1.382       .  A
C178        C179   1.377       .  A
C178        H181   1.083       .  S
C179        C180   1.378       .  A
C179        H182   1.082       .  S
C180        C218   1.443       .  S
N183        C187   1.353   1_455  A
N183        C184   1.358       .  A
N183        C304   1.410   1_554  S
C184        C514   1.448   1_554  S
C184        C185   1.382   1_455  A
C185        C186   1.377       .  A
C185        H188   1.083       .  S
C186        C187   1.378       .  A
C186        H189   1.082       .  S
C187        C570   1.445       .  S
N190        C194   1.353       .  A
N190        C191   1.356       .  A
N190        C430   1.408       .  S
C191        C666   1.447       .  S
C191        C192   1.382       .  A
C192        C193   1.378       .  A
C192        H195   1.082       .  S
C193        C194   1.379       .  A
C193        H196   1.082       .  S
C194        C582   1.445       .  S
C197        C205   1.442       .  S
C197        C198   1.403       .  A
C197        C202   1.400       .  A
C198        C199   1.402       .  A
C198        H207   1.083       .  S
C199        C200   1.402       .  A
C199        H208   1.084       .  S
C200        C203   1.441       .  S
C200        C201   1.401       .  A
C201        C202   1.398       .  A
C201        H209   1.084       .  S
C202        H210   1.084       .  S
C203        C204   1.206       .  T
C205        C206   1.207       .  T
C211        C219   1.441       .  S
C211        C212   1.400   1_455  A
C211        C216   1.403       .  A
C212        C213   1.398       .  A
C212        H221   1.083       .  S
C213        C214   1.402   1_655  A
C213        H222   1.084       .  S
C214        C217   1.441       .  S
C214        C215   1.402       .  A
C215        C216   1.401       .  A
C215        H223   1.083       .  S
C216        H224   1.084       .  S
C217        C218   1.206       .  T
C219        C220   1.207       .  T
C225        C233   1.444       .  S
C225        C226   1.402       .  A
C225        C230   1.402       .  A
C226        C227   1.401       .  A
C226        H235   1.083       .  S
C227        C228   1.402       .  A
C227        H236   1.084   1_565  S
C228        C231   1.443       .  S
C228        C229   1.401       .  A
C229        C230   1.400       .  A
C229        H237   1.083       .  S
C230        H238   1.084       .  S
C231        C232   1.208       .  T
C233        C234   1.208       .  T
C239        C247   1.443       .  S
C239        C240   1.401       .  A
C239        C244   1.402       .  A
C240        C241   1.400       .  A
C240        H249   1.083   1_455  S
C241        C242   1.402       .  A
C241        H250   1.084   1_455  S
C242        C245   1.444       .  S
C242        C243   1.402       .  A
C243        C244   1.401       .  A
C243        H251   1.083       .  S
C244        H252   1.084       .  S
C245        C246   1.208       .  T
C247        C248   1.208       .  T
C253        C261   1.448       .  S
C253        C254   1.403       .  A
C253        C258   1.403       .  A
C254        C255   1.402       .  A
C254        H263   1.083       .  S
C255        C256   1.402       .  A
C255        H264   1.084       .  S
C256        C259   1.449       .  S
C256        C257   1.403       .  A
C257        C258   1.403       .  A
C257        H265   1.083       .  S
C258        H266   1.084       .  S
C259        C260   1.212       .  T
C261        C262   1.211       .  T
C267        C275   1.446       .  S
C267        C268   1.402       .  A
C267        C272   1.403       .  A
C268        C269   1.402       .  A
C268        H277   1.084       .  S
C269        C270   1.404       .  A
C269        H278   1.083       .  S
C270        C273   1.447       .  S
C270        C271   1.401       .  A
C271        C272   1.401       .  A
C271        H279   1.084       .  S
C272        H280   1.083       .  S
C273        C274   1.210       .  T
C275        C276   1.210       .  T
C281        C289   1.446       .  S
C281        C282   1.403       .  A
C281        C286   1.402       .  A
C282        C283   1.401       .  A
C282        H291   1.084       .  S
C283        C284   1.402       .  A
C283        H292   1.083       .  S
C284        C287   1.446       .  S
C284        C285   1.403       .  A
C285        C286   1.402       .  A
C285        H293   1.084       .  S
C286        H294   1.083       .  S
C287        C288   1.210       .  T
C289        C290   1.209       .  T
C295        C303   1.448       .  S
C295        C296   1.403       .  A
C295        C300   1.403       .  A
C296        C297   1.402       .  A
C296        H305   1.083   1_455  S
C297        C298   1.402       .  A
C297        H306   1.083   1_455  S
C298        C301   1.449       .  S
C298        C299   1.404       .  A
C299        C300   1.403       .  A
C299        H307   1.083       .  S
C300        H308   1.083       .  S
C301        C302   1.211       .  T
C303        C304   1.211       .  T
C309        C317   1.448       .  S
C309        C310   1.404       .  A
C309        C314   1.402       .  A
C310        C311   1.403       .  A
C310        H319   1.083       .  S
C311        C312   1.402       .  A
C311        H320   1.083       .  S
C312        C315   1.447       .  S
C312        C313   1.403       .  A
C313        C314   1.401       .  A
C313        H321   1.084       .  S
C314        H322   1.083       .  S
C315        C316   1.210       .  T
C317        C318   1.211       .  T
C323        C331   1.445       .  S
C323        C324   1.403       .  A
C323        C328   1.402       .  A
C324        C325   1.403       .  A
C324        H333   1.083       .  S
C325        C326   1.403       .  A
C325        H334   1.083       .  S
C326        C329   1.445       .  S
C326        C327   1.401       .  A
C327        C328   1.400       .  A
C327        H335   1.083       .  S
C328        H336   1.083       .  S
C329        C330   1.209       .  T
C331        C332   1.209       .  T
C337        C345   1.447       .  S
C337        C338   1.404       .  A
C337        C342   1.402       .  A
C338        C339   1.404       .  A
C338        H347   1.083       .  S
C339        C340   1.403       .  A
C339        H348   1.083       .  S
C340        C343   1.446       .  S
C340        C341   1.401       .  A
C341        C342   1.399       .  A
C341        H349   1.083       .  S
C342        H350   1.084       .  S
C343        C344   1.210       .  T
C345        C346   1.210       .  T
C351        C359   1.448       .  S
C351        C352   1.403       .  A
C351        C356   1.403       .  A
C352        C353   1.403       .  A
C352        H361   1.083       .  S
C353        C354   1.403       .  A
C353        H362   1.083       .  S
C354        C357   1.447       .  S
C354        C355   1.402       .  A
C355        C356   1.402       .  A
C355        H363   1.083       .  S
C356        H364   1.084       .  S
C357        C358   1.210       .  T
C359        C360   1.211       .  T
C365        C373   1.445   1_545  S
C365        C366   1.402       .  A
C365        C370   1.402       .  A
C366        C367   1.399       .  A
C366        H375   1.083   1_545  S
C367        C368   1.401       .  A
C367        H376   1.084       .  S
C368        C371   1.445       .  S
C368        C369   1.403       .  A
C369        C370   1.403       .  A
C369        H377   1.083       .  S
C370        H378   1.084       .  S
C371        C372   1.209       .  T
C373        C374   1.209       .  T
C379        C387   1.449       .  S
C379        C380   1.404       .  A
C379        C384   1.403   1_655  A
C380        C381   1.405       .  A
C380        H389   1.083       .  S
C381        C382   1.404       .  A
C381        H390   1.084       .  S
C382        C385   1.449       .  S
C382        C383   1.402   1_655  A
C383        C384   1.401       .  A
C383        H391   1.083       .  S
C384        H392   1.084       .  S
C385        C386   1.212       .  T
C387        C388   1.211       .  T
C393        C401   1.445       .  S
C393        C394   1.402   1_455  A
C393        C398   1.402       .  A
C394        C395   1.402       .  A
C394        H403   1.083       .  S
C395        C396   1.402   1_655  A
C395        H404   1.084       .  S
C396        C399   1.445       .  S
C396        C397   1.402       .  A
C397        C398   1.401       .  A
C397        H405   1.083       .  S
C398        H406   1.084       .  S
C399        C400   1.209   1_455  T
C401        C402   1.209       .  T
C407        C415   1.445       .  S
C407        C408   1.403       .  A
C407        C412   1.402   1_565  A
C408        C409   1.401       .  A
C408        H417   1.084       .  S
C409        C410   1.402       .  A
C409        H418   1.083       .  S
C410        C413   1.446       .  S
C410        C411   1.403   1_565  A
C411        C412   1.401       .  A
C411        H419   1.084       .  S
C412        H420   1.083       .  S
C413        C414   1.209       .  T
C415        C416   1.209       .  T
C421        C429   1.445       .  S
C421        C422   1.402       .  A
C421        C426   1.403       .  A
C422        C423   1.403       .  A
C422        H431   1.083       .  S
C423        C424   1.404       .  A
C423        H432   1.083       .  S
C424        C427   1.446       .  S
C424        C425   1.401       .  A
C425        C426   1.399       .  A
C425        H433   1.083       .  S
C426        H434   1.084       .  S
C427        C428   1.209       .  T
C429        C430   1.209       .  T
C435        C443   1.447       .  S
C435        C436   1.404       .  A
C435        C440   1.401       .  A
C436        C437   1.404       .  A
C436        H445   1.084       .  S
C437        C438   1.402       .  A
C437        H446   1.083       .  S
C438        C441   1.447       .  S
C438        C439   1.403       .  A
C439        C440   1.400       .  A
C439        H447   1.084   1_655  S
C440        H448   1.083       .  S
C441        C442   1.210       .  T
C443        C444   1.211       .  T
C449        C457   1.445       .  S
C449        C450   1.403       .  A
C449        C454   1.401       .  A
C450        C451   1.400       .  A
C450        H459   1.083       .  S
C451        C452   1.401       .  A
C451        H460   1.084       .  S
C452        C455   1.446       .  S
C452        C453   1.404       .  A
C453        C454   1.403       .  A
C453        H461   1.083       .  S
C454        H462   1.083       .  S
C455        C456   1.209       .  T
C457        C458   1.209       .  T
C463        C471   1.447       .  S
C463        C464   1.403       .  A
C463        C468   1.402       .  A
C464        C465   1.402       .  A
C464        H473   1.083       .  S
C465        C466   1.403       .  A
C465        H474   1.083       .  S
C466        C469   1.446       .  S
C466        C467   1.402       .  A
C467        C468   1.401       .  A
C467        H475   1.083       .  S
C468        H476   1.083       .  S
C469        C470   1.210       .  T
C471        C472   1.210       .  T
C477        C485   1.447       .  S
C477        C478   1.403       .  A
C477        C482   1.402       .  A
C478        C479   1.401       .  A
C478        H487   1.084       .  S
C479        C480   1.401       .  A
C479        H488   1.083       .  S
C480        C483   1.448       .  S
C480        C481   1.404       .  A
C481        C482   1.403       .  A
C481        H489   1.084       .  S
C482        H490   1.083       .  S
C483        C484   1.211       .  T
C485        C486   1.210       .  T
C491        C499   1.445       .  S
C491        C492   1.403       .  A
C491        C496   1.401   1_565  A
C492        C493   1.403       .  A
C492        H501   1.083       .  S
C493        C494   1.403       .  A
C493        H502   1.083       .  S
C494        C497   1.445       .  S
C494        C495   1.401   1_565  A
C495        C496   1.399       .  A
C495        H503   1.084       .  S
C496        H504   1.083       .  S
C497        C498   1.209       .  T
C499        C500   1.209       .  T
C505        C513   1.452       .  S
C505        C506   1.404   1_455  A
C505        C510   1.403       .  A
C506        C507   1.405       .  A
C506        H515   1.084       .  S
C507        C508   1.404   1_655  A
C507        H516   1.083       .  S
C508        C511   1.452       .  S
C508        C509   1.403       .  A
C509        C510   1.403       .  A
C509        H517   1.084       .  S
C510        H518   1.083   1_556  S
C511        C512   1.213       .  T
C513        C514   1.212       .  T
C519        C527   1.448       .  S
C519        C520   1.404       .  A
C519        C524   1.402       .  A
C520        C521   1.404       .  A
C520        H529   1.083       .  S
C521        C522   1.404       .  A
C521        H530   1.084       .  S
C522        C525   1.449       .  S
C522        C523   1.402       .  A
C523        C524   1.401       .  A
C523        H531   1.083   1_455  S
C524        H532   1.084       .  S
C525        C526   1.211       .  T
C527        C528   1.211       .  T
C533        C541   1.443       .  S
C533        C534   1.402       .  A
C533        C538   1.402       .  A
C534        C535   1.399       .  A
C534        H543   1.083       .  S
C535        C536   1.401       .  A
C535        H544   1.084       .  S
C536        C539   1.443       .  S
C536        C537   1.403       .  A
C537        C538   1.401       .  A
C537        H545   1.083   1_655  S
C538        H546   1.083       .  S
C539        C540   1.208       .  T
C541        C542   1.207       .  T
C547        C555   1.446       .  S
C547        C548   1.403   1_556  A
C547        C552   1.402       .  A
C548        C549   1.401       .  A
C548        H557   1.083       .  S
C549        C550   1.401       .  A
C549        H558   1.084       .  S
C550        C553   1.446       .  S
C550        C551   1.404       .  A
C551        C552   1.402   1_554  A
C551        H559   1.083       .  S
C552        H560   1.083       .  S
C553        C554   1.210       .  T
C555        C556   1.209       .  T
C561        C569   1.443       .  S
C561        C562   1.401       .  A
C561        C566   1.403   1_655  A
C562        C563   1.399       .  A
C562        H571   1.083       .  S
C563        C564   1.402       .  A
C563        H572   1.084       .  S
C564        C567   1.444       .  S
C564        C565   1.402   1_655  A
C565        C566   1.402       .  A
C565        H573   1.083       .  S
C566        H574   1.083       .  S
C567        C568   1.208       .  T
C569        C570   1.208       .  T
C575        C583   1.444       .  S
C575        C576   1.403       .  A
C575        C580   1.401       .  A
C576        C577   1.402       .  A
C576        H585   1.083       .  S
C577        C578   1.402       .  A
C577        H586   1.083       .  S
C578        C581   1.444       .  S
C578        C579   1.402       .  A
C579        C580   1.399       .  A
C579        H587   1.083       .  S
C580        H588   1.083       .  S
C581        C582   1.208       .  T
C583        C584   1.209       .  T
C589        C597   1.447       .  S
C589        C590   1.404       .  A
C589        C594   1.401       .  A
C590        C591   1.402       .  A
C590        H599   1.083       .  S
C591        C592   1.402       .  A
C591        H600   1.084       .  S
C592        C595   1.447       .  S
C592        C593   1.403       .  A
C593        C594   1.402       .  A
C593        H601   1.083       .  S
C594        H602   1.083       .  S
C595        C596   1.210       .  T
C597        C598   1.210       .  T
C603        C611   1.447       .  S
C603        C604   1.402   1_655  A
C603        C608   1.403       .  A
C604        C605   1.401       .  A
C604        H613   1.084       .  S
C605        C606   1.402   1_455  A
C605        H614   1.083       .  S
C606        C609   1.447       .  S
C606        C607   1.403       .  A
C607        C608   1.403       .  A
C607        H615   1.084       .  S
C608        H616   1.083       .  S
C609        C610   1.210   1_655  T
C611        C612   1.210       .  T
C617        C625   1.445       .  S
C617        C618   1.402       .  A
C617        C622   1.402       .  A
C618        C619   1.402       .  A
C618        H627   1.083       .  S
C619        C620   1.403       .  A
C619        H628   1.084       .  S
C620        C623   1.445       .  S
C620        C621   1.402       .  A
C621        C622   1.400       .  A
C621        H629   1.083   1_655  S
C622        H630   1.084   1_655  S
C623        C624   1.209       .  T
C625        C626   1.209   1_545  T
C631        C639   1.448       .  S
C631        C632   1.402       .  A
C631        C636   1.403   1_554  A
C632        C633   1.403   1_554  A
C632        H641   1.083       .  S
C633        C634   1.404       .  A
C633        H642   1.083       .  S
C634        C637   1.448       .  S
C634        C635   1.401       .  A
C635        C636   1.401       .  A
C635        H643   1.083       .  S
C636        H644   1.083       .  S
C637        C638   1.211       .  T
C639        C640   1.210       .  T
C645        C653   1.444       .  S
C645        C646   1.402       .  A
C645        C650   1.402       .  A
C646        C647   1.401       .  A
C646        H655   1.083       .  S
C647        C648   1.402       .  A
C647        H656   1.083       .  S
C648        C651   1.444       .  S
C648        C649   1.402       .  A
C649        C650   1.401       .  A
C649        H657   1.083       .  S
C650        H658   1.083       .  S
C651        C652   1.208       .  T
C653        C654   1.209       .  T
C659        C667   1.451       .  S
C659        C660   1.403       .  A
C659        C664   1.403       .  A
C660        C661   1.403       .  A
C660        H669   1.084       .  S
C661        C662   1.404       .  A
C661        H670   1.083       .  S
C662        C665   1.450       .  S
C662        C663   1.403       .  A
C663        C664   1.403       .  A
C663        H671   1.084       .  S
C664        H672   1.083       .  S
C665        C666   1.211       .  T
C667        C668   1.213       .  T
C673        C681   1.447       .  S
C673        C674   1.403       .  A
C673        C678   1.403       .  A
C674        C675   1.401       .  A
C674        H683   1.083       .  S
C675        C676   1.402       .  A
C675        H684   1.084       .  S
C676        C679   1.448       .  S
C676        C677   1.403       .  A
C677        C678   1.403       .  A
C677        H685   1.083       .  S
C678        H686   1.084       .  S
C679        C680   1.211       .  T
C681        C682   1.210       .  T
C687        C695   1.447       .  S
C687        C688   1.403       .  A
C687        C692   1.402       .  A
C688        C689   1.402       .  A
C688        H697   1.083   1_565  S
C689        C690   1.403       .  A
C689        H698   1.084   1_565  S
C690        C693   1.447       .  S
C690        C691   1.403       .  A
C691        C692   1.401       .  A
C691        H699   1.083       .  S
C692        H700   1.084       .  S
C693        C694   1.210       .  T
C695        C696   1.210       .  T
