geometry optimzed in LAMMPS
_audit_creation_date              2020-11-30 
_audit_creation_method            'lammps2cif' 
_symmetry_space_group_name_H-M    'P1' 
_symmetry_Int_Tables_number       1 
_symmetry_cell_setting            triclinic 
loop_ 
_symmetry_equiv_pos_as_xyz 
  x,y,z 
_cell_length_a                    36.064223907311344 
_cell_length_b                    35.084042628826126 
_cell_length_c                    35.86092869052587 
_cell_angle_alpha                 88.00239236912793 
_cell_angle_beta                  87.3837650670784 
_cell_angle_gamma                 87.61344353410446 
loop_ 
_atom_site_label 
_atom_site_type_symbol 
_atom_site_fract_x 
_atom_site_fract_y 
_atom_site_fract_z 
_atom_site_charge 
O1          O  0.04262084  0.01530047  0.16944589    -0.81400
O2          O  0.52259324  0.45106517  0.29622848    -0.81420
O3          O  0.06815927  0.99976244  0.29477849    -0.81430
O4          O  0.48929831  0.42607476  0.21709917    -0.81370
O5          O  0.02766148  0.51016990  0.34169189    -0.81500
O6          O  0.98655142  0.46567233  0.16777367    -0.81410
O7          O  0.46880816  0.42844384  0.29190757    -0.81400
O8          O  0.07085968  0.99075520  0.21777948    -0.81440
C9          C  0.07155692  0.99980911  0.18363676     1.08290
C10         C  0.49994774  0.42636962  0.30576811     1.08180
C11         C  0.06112598  0.00305333  0.33008212     1.08310
C12         C  0.49102302  0.43187466  0.18226032     1.08190
O13         O  0.43344622  0.02885758  0.19516435    -0.81400
O14         O  0.47967285  0.05607298  0.29801332    -0.81480
O15         O  0.04677059  0.07080201  0.20834426    -0.81410
O16         O  0.41756056  0.48884314  0.27650792    -0.81390
O17         O  0.45413454  0.49286736  0.32362076    -0.81440
O18         O  0.98807072  0.07255246  0.20367314    -0.81410
O19         O  0.42331585  0.46929660  0.20190932    -0.81370
O20         O  0.03448255  0.07383992  0.28423580    -0.81440
Co21       Co  0.98786956  0.01977794  0.18789760     1.51530
Co22       Co  0.50218630  0.50495818  0.29562096     1.51690
Co23       Co  0.04809506  0.02994514  0.25007638     1.51570
Co24       Co  0.45476291  0.45834265  0.24650076     1.51470
O25         O  0.99355556  0.50312392  0.24286544    -1.43330
C26         C  0.41383303  0.50165711  0.18856785     1.08220
C27         C  0.00373477  0.07980408  0.30146085     1.08310
C28         C  0.01811111  0.08795117  0.19653560     1.08240
C29         C  0.42177274  0.49407240  0.31076015     1.08220
O30         O  0.98148270  0.20914929  0.06247090    -0.81400
O31         O  0.42795890  0.29245322  0.51663779    -0.81420
O32         O  0.01113754  0.28952747  0.06224848    -0.81430
O33         O  0.42277807  0.21121750  0.45384667    -0.81370
O34         O  0.47984825  0.34058289  0.03976240    -0.81500
O35         O  0.42637124  0.20576002  0.01429885    -0.81410
O36         O  0.42420679  0.28829304  0.45599997    -0.81400
O37         O  0.04065804  0.21673834  0.05983219    -0.81440
C38         C  0.01249574  0.20240486  0.07637157     1.08290
C39         C  0.40979710  0.29844101  0.48717723     1.08180
C40         C  0.99628866  0.32360662  0.06651183     1.08310
C41         C  0.40928537  0.19957375  0.48560642     1.08190
O42         O  0.97666219  0.16591922  0.46144791    -0.81400
O43         O  0.03813073  0.31241635  0.49720911    -0.81480
O44         O  0.06207968  0.22156478  0.98250573    -0.81410
O45         O  0.49989543  0.28724028  0.42569357    -0.81390
O46         O  0.47712968  0.33037104  0.46342191    -0.81440
O47         O  0.03218212  0.17237782  0.00756312    -0.81410
O48         O  0.49969592  0.21039948  0.42438901    -0.81370
O49         O  0.07986917  0.27802854  0.02915299    -0.81440
Co50       Co  0.97889594  0.19117950  0.01149720     1.51530
Co51       Co  0.48278212  0.29723693  0.50996562     1.51690
Co52       Co  0.03473091  0.25616710  0.01775142     1.51570
Co53       Co  0.46381998  0.24917876  0.44233961     1.51470
O54         O  0.48789114  0.24441367  0.49233460    -1.43330
C55         C  0.49093406  0.17633284  0.42977193     1.08220
C56         C  0.07108072  0.30798053  0.01001686     1.08310
C57         C  0.06070668  0.18609466  0.99073886     1.08240
C58         C  0.49184936  0.32181241  0.43183334     1.08220
O59         O  0.28967920  0.98820691  0.06661942    -0.81400
O60         O  0.15566015  0.46531885  0.50436492    -0.81420
O61         O  0.20821194  0.03822426  0.06965060    -0.81430
O62         O  0.27679202  0.42742355  0.45986507    -0.81370
O63         O  0.20477252  0.47769860  0.05718114    -0.81500
O64         O  0.28778613  0.43331087  0.01809569    -0.81410
O65         O  0.20652514  0.43209552  0.48996020    -0.81400
O66         O  0.28424039  0.04967110  0.06846983    -0.81440
C67         C  0.29619524  0.01817771  0.08263917     1.08290
C68         C  0.17121918  0.43333484  0.49786172     1.08180
C69         C  0.19763791  0.00458450  0.07902178     1.08310
C70         C  0.29046483  0.41344052  0.48964571     1.08190
O71         O  0.32243757  0.98244620  0.45947678    -0.81400
O72         O  0.16732122  0.03687833  0.51480970    -0.81480
O73         O  0.28119151  0.07800333  0.99230163    -0.81410
O74         O  0.21441940  0.45544260  0.41838594    -0.81390
O75         O  0.19078389  0.50483614  0.44909262    -0.81440
O76         O  0.32703054  0.03874960  0.00995642    -0.81410
O77         O  0.27367326  0.50221642  0.42732387    -0.81370
O78         O  0.20856188  0.07501772  0.99265587    -0.81440
Co79       Co  0.30405077  0.98613891  0.01349703     1.51530
Co80       Co  0.20040581  0.49048855  0.50418636     1.51690
Co81       Co  0.24549687  0.05715001  0.02883104     1.51570
Co82       Co  0.23955053  0.47220177  0.46048056     1.51470
O83         O  0.25266362  0.00579855  0.50301943    -1.43330
C84         C  0.30833164  0.49438445  0.42898651     1.08220
C85         C  0.17529232  0.06903736  0.00081926     1.08310
C86         C  0.31522242  0.07085405  0.99588888     1.08240
C87         C  0.18946956  0.48205868  0.42175096     1.08220
C88         C  0.31407311  0.37741597  0.49021902    -0.07390
C89         C  0.32866961  0.36405971  0.45609341    -0.18510
C90         C  0.35800404  0.33678196  0.45412988     0.09810
C91         C  0.37401011  0.32175119  0.48750606    -0.07310
C92         C  0.35729302  0.33277568  0.02181046    -0.18550
C93         C  0.32740672  0.35975073  0.02359837     0.09840
S94         S  0.37482791  0.32538748  0.40751895    -0.33510
S95         S  0.30851332  0.37064020  0.06961214    -0.33520
H96         H  0.27168616  0.37582678  0.05878139     0.27850
H97         H  0.37099015  0.28589514  0.41386952     0.27850
H98         H  0.31846423  0.37640787  0.43033214     0.18440
H99         H  0.36819786  0.32108760  0.04763934     0.18450
C100        C  0.37925172  0.17159732  0.48879922    -0.07390
C101        C  0.36416070  0.15875770  0.45630054    -0.18510
C102        C  0.34248622  0.12636753  0.45728955     0.09810
C103        C  0.33958206  0.10346407  0.99068946    -0.07310
C104        C  0.35316874  0.11727997  0.02333207    -0.18550
C105        C  0.37016893  0.15227788  0.02324235     0.09840
S106        S  0.31874926  0.11775995  0.41525005    -0.33510
S107        S  0.37619081  0.17193209  0.06831413    -0.33520
H108        H  0.36824272  0.20988835  0.05622008     0.27850
H109        H  0.30203854  0.08362518  0.42629709     0.27850
H110        H  0.36918434  0.17405574  0.42990320     0.18440
H111        H  0.34759614  0.10225176  0.04982626     0.18450
C112        C  0.09745048  0.33918104  0.50340470    -0.07390
C113        C  0.13602791  0.33112207  0.50140018    -0.18510
C114        C  0.16142490  0.36066698  0.49915973     0.09810
C115        C  0.14801782  0.39922625  0.49977966    -0.07310
C116        C  0.10955694  0.40674155  0.00107146    -0.18550
C117        C  0.08457814  0.37785379  0.00241373     0.09840
S118        S  0.21005732  0.34717853  0.49625994    -0.33510
S119        S  0.03658693  0.39341457  0.00523963    -0.33460
H120        H  0.03212956  0.38159959  0.96880985     0.27850
H121        H  0.21808223  0.37033227  0.52577695     0.27850
H122        H  0.14645440  0.30170489  0.50202266     0.18440
H123        H  0.09824579  0.43585883  0.00081782     0.18450
C124        C  0.14738570  0.10044732  0.99716638    -0.07390
C125        C  0.13202840  0.10893413  0.46243845    -0.18510
C126        C  0.10572193  0.13923826  0.45809504     0.09810
C127        C  0.09439817  0.16111778  0.98922378    -0.07310
C128        C  0.11080521  0.15320164  0.02346434    -0.18550
C129        C  0.13744438  0.12365099  0.02759113     0.09840
S130        S  0.08717221  0.14775324  0.41270958    -0.33510
S131        S  0.15722648  0.11648000  0.07260846    -0.33520
H132        H  0.19393455  0.11208139  0.05797363     0.27850
H133        H  0.07677060  0.18633364  0.41769413     0.27850
H134        H  0.14041484  0.09178225  0.43870890     0.18440
H135        H  0.10199420  0.16956944  0.04762225     0.18450
C136        C  0.33306569  0.49668006  0.39493380    -0.07390
C137        C  0.35752504  0.02658221  0.39094106    -0.18510
C138        C  0.38312247  0.02893794  0.36056473     0.09810
C139        C  0.38878308  0.49794766  0.33670610    -0.07310
C140        C  0.36431774  0.46791573  0.34039404    -0.18550
C141        C  0.33580337  0.46762212  0.36834975     0.09840
S142        S  0.40411579  0.07385828  0.35116380    -0.33510
S143        S  0.30555575  0.42815358  0.36978255    -0.33520
H144        H  0.27392829  0.45019493  0.38027310     0.27850
H145        H  0.40742984  0.06998841  0.31223942     0.27850
H146        H  0.35657911  0.04842570  0.41141843     0.18440
H147        H  0.36785587  0.44418522  0.32182193     0.18450
C148        C  0.09236936  0.49565110  0.35540401    -0.07390
C149        C  0.12420580  0.47504953  0.34149854    -0.18510
C150        C  0.15667964  0.47097432  0.36149499     0.09810
C151        C  0.15747037  0.48668763  0.39711149    -0.07310
C152        C  0.12522993  0.00609664  0.41150897    -0.18550
C153        C  0.09326954  0.01118533  0.39106326     0.09840
S154        S  0.19649096  0.44738399  0.33902573    -0.33510
S155        S  0.05595024  0.04026215  0.41103000    -0.33520
H156        H  0.05777225  0.06656974  0.38057118     0.27850
H157        H  0.22069936  0.47590299  0.34770912     0.27850
H158        H  0.12437400  0.46293796  0.31410194     0.18440
H159        H  0.12485101  0.01801695  0.43900629     0.18450
C160        C  0.10760727  0.99827182  0.16176059    -0.07390
C161        C  0.11752914  0.46641021  0.14067775    -0.18510
C162        C  0.14961140  0.46540278  0.11701841     0.09810
C163        C  0.17124695  0.99843860  0.11190627    -0.07310
C164        C  0.16293066  0.02894546  0.13551466    -0.18550
C165        C  0.13247802  0.02853879  0.16116160     0.09840
S166        S  0.16079901  0.42086758  0.09475520    -0.33510
S167        S  0.12767781  0.06743028  0.19248109    -0.33520
H168        H  0.11621069  0.04478719  0.22365055     0.27850
H169        H  0.19894221  0.42148910  0.10137548     0.27850
H170        H  0.10047328  0.44183436  0.14297577     0.18440
H171        H  0.18001492  0.05369106  0.13372741     0.18450
C172        C  0.32337380  0.01526747  0.11286333    -0.07390
C173        C  0.34838706  0.48354826  0.11180880    -0.18510
C174        C  0.37835674  0.47991767  0.13475141     0.09810
C175        C  0.38279802  0.00659302  0.16252399    -0.07310
C176        C  0.35785722  0.03859713  0.16414253    -0.18550
C177        C  0.32838536  0.04335350  0.13946365     0.09840
S178        S  0.41334083  0.44447339  0.12207959    -0.33510
S179        S  0.29819483  0.08529025  0.14360131    -0.33520
H180        H  0.26570950  0.06662592  0.13604301     0.27850
H181        H  0.44071658  0.47168519  0.11626723     0.27850
H182        H  0.34655760  0.46244923  0.09065397     0.18440
H183        H  0.36125263  0.05989305  0.18474877     0.18450
C184        C  0.49398568  0.15079969  0.39739697    -0.07390
C185        C  0.00719437  0.16609570  0.36249213    -0.18510
C186        C  0.01015882  0.14421765  0.33053416     0.09810
C187        C  0.99944719  0.10623626  0.33272194    -0.07310
C188        C  0.48668747  0.09084451  0.36743520    -0.18550
C189        C  0.48316229  0.11251698  0.39938603     0.09840
S190        S  0.02687495  0.16624560  0.28761059    -0.33510
S191        S  0.46474732  0.08911988  0.44132632    -0.33520
H192        H  0.43359677  0.11451194  0.44402593     0.27850
H193        H  0.06176341  0.14707649  0.29028700     0.27850
H194        H  0.01548972  0.19542088  0.35983873     0.18440
H195        H  0.47960782  0.06113075  0.36992793     0.18450
C196        C  0.50562423  0.40106199  0.33834339    -0.07390
C197        C  0.49178833  0.41449773  0.37278018    -0.18510
C198        C  0.48632308  0.38974180  0.40365071     0.09810
C199        C  0.49773334  0.35072091  0.40105160    -0.07310
C200        C  0.01352348  0.33798240  0.36665950    -0.18550
C201        C  0.01670171  0.36246121  0.33519729     0.09840
S202        S  0.46111955  0.40952277  0.44350356    -0.33510
S203        S  0.03250118  0.34225821  0.29139817    -0.33520
H204        H  0.04507124  0.37627695  0.27427437     0.27850
H205        H  0.43257270  0.38342965  0.44285371     0.27850
H206        H  0.48215010  0.44406223  0.37480435     0.18440
H207        H  0.02209333  0.30825773  0.36356254     0.18450
C208        C  0.49435762  0.39839015  0.15812900    -0.07390
C209        C  0.02719131  0.39161413  0.13697967    -0.18510
C210        C  0.03017593  0.36257968  0.11115096     0.09810
C211        C  0.99821930  0.34329474  0.10229675    -0.07310
C212        C  0.46596746  0.34819038  0.12525186    -0.18550
C213        C  0.46484486  0.37339684  0.15493075     0.09840
S214        S  0.07573472  0.35037391  0.09217813    -0.33510
S215        S  0.42466030  0.37342601  0.18672620    -0.33520
H216        H  0.44522752  0.37375029  0.21904635     0.27850
H217        H  0.07017453  0.31093686  0.09432126     0.27850
H218        H  0.05093454  0.40830256  0.14144505     0.18440
H219        H  0.44167254  0.33231193  0.12010513     0.18450
C220        C  0.01582419  0.17319597  0.10694782    -0.07390
C221        C  0.04178444  0.17632348  0.13460424    -0.18510
C222        C  0.04408621  0.14938549  0.16460624     0.09810
C223        C  0.01927611  0.11887059  0.16721301    -0.07310
C224        C  0.99434257  0.11559989  0.13870502    -0.18550
C225        C  0.99309997  0.14129798  0.10853103     0.09840
S226        S  0.07865017  0.15696739  0.19802547    -0.33510
S227        S  0.46438512  0.12917231  0.07124647    -0.33520
H228        H  0.49473887  0.12562971  0.04553646     0.27850
H229        H  0.06569136  0.13177822  0.22612704     0.27850
H230        H  0.06002913  0.20015582  0.13310229     0.18440
H231        H  0.47645170  0.09148666  0.13888127     0.18450
O232        O  0.04262187  0.01529969  0.66944617    -0.81400
O233        O  0.52259282  0.45106598  0.79622935    -0.81420
O234        O  0.06815836  0.99976311  0.79477902    -0.81430
O235        O  0.48929896  0.42607382  0.71709904    -0.81370
O236        O  0.02766025  0.51017139  0.84169208    -0.81500
O237        O  0.98655254  0.46567145  0.66777357    -0.81410
O238        O  0.46880826  0.42844370  0.79190756    -0.81400
O239        O  0.07086060  0.99075528  0.71778019    -0.81440
C240        C  0.07155795  0.99980857  0.68363729     1.08290
C241        C  0.49994746  0.42637031  0.80576885     1.08180
C242        C  0.06112485  0.00305481  0.83008248     1.08310
C243        C  0.49102402  0.43187371  0.68226015     1.08190
O244        O  0.43344698  0.02885665  0.69516414    -0.81400
O245        O  0.47967161  0.05607351  0.79801269    -0.81480
O246        O  0.04677093  0.07080158  0.70834430    -0.81410
O247        O  0.41756018  0.48884215  0.77650742    -0.81390
O248        O  0.45413368  0.49286774  0.82362047    -0.81440
O249        O  0.98807113  0.07255153  0.70367348    -0.81410
O250        O  0.42331681  0.46929580  0.70190858    -0.81370
O251        O  0.03448163  0.07384040  0.78423571    -0.81440
Co252      Co  0.98787041  0.01977718  0.68789760     1.51530
Co253      Co  0.50218553  0.50495880  0.79562100     1.51690
Co254      Co  0.04809496  0.02994526  0.75007664     1.51570
Co255      Co  0.45476317  0.45834184  0.74650045     1.51470
O256        O  0.99355575  0.50312331  0.74286540    -1.43330
C257        C  0.41383412  0.50165640  0.68856734     1.08220
C258        C  0.00373359  0.07980477  0.80146032     1.08310
C259        C  0.01811132  0.08795052  0.69653589     1.08240
C260        C  0.42177200  0.49407202  0.81075965     1.08220
O261        O  0.98148333  0.20914835  0.56247103    -0.81400
O262        O  0.42795559  0.29245417  0.01663857    -0.81420
O263        O  0.01114019  0.28952580  0.56224830    -0.81430
O264        O  0.42277587  0.21121888  0.95384738    -0.81370
O265        O  0.47985197  0.34058136  0.53976137    -0.81500
O266        O  0.42637231  0.20575945  0.51429823    -0.81410
O267        O  0.42420358  0.28829450  0.95600075    -0.81400
O268        O  0.04065894  0.21673608  0.55983270    -0.81440
C269        C  0.01249617  0.20240357  0.57637204     1.08290
C270        C  0.40979363  0.29844193  0.98717809     1.08180
C271        C  0.99629162  0.32360517  0.56651121     1.08310
C272        C  0.40928386  0.19957465  0.98560723     1.08190
O273        O  0.97666080  0.16592092  0.96144744    -0.81400
O274        O  0.03812701  0.31241974  0.99720943    -0.81480
O275        O  0.06208147  0.22156101  0.48250651    -0.81410
O276        O  0.49989216  0.28724232  0.92569420    -0.81390
O277        O  0.47712596  0.33037293  0.96342260    -0.81440
O278        O  0.03218263  0.17237511  0.50756437    -0.81410
O279        O  0.49969312  0.21040164  0.92438825    -0.81370
O280        O  0.07987184  0.27802460  0.52915368    -0.81440
Co281      Co  0.97889687  0.19117800  0.51149752     1.51530
Co282      Co  0.48277881  0.29723879  0.00996620     1.51690
Co283      Co  0.03473319  0.25616438  0.51775163     1.51570
Co284      Co  0.46381713  0.24918056  0.94233997     1.51470
O285        O  0.48788884  0.24441561  0.99233471    -1.43330
C286        C  0.49093186  0.17633479  0.92977121     1.08220
C287        C  0.07108413  0.30797661  0.51001725     1.08310
C288        C  0.06070754  0.18609102  0.49073996     1.08240
C289        C  0.49184608  0.32181439  0.93183417     1.08220
O290        O  0.28968101  0.98820544  0.56661902    -0.81400
O291        O  0.15565742  0.46532353  0.00436209    -0.81420
O292        O  0.20821358  0.03822171  0.56965109    -0.81430
O293        O  0.27678952  0.42742524  0.95986527    -0.81370
O294        O  0.20477548  0.47769556  0.55718287    -0.81500
O295        O  0.28778885  0.43330923  0.51809543    -0.81410
O296        O  0.20652221  0.43209905  0.98995958    -0.81400
O297        O  0.28424168  0.04966961  0.56846945    -0.81440
C298        C  0.29619681  0.01817630  0.58263872     1.08290
C299        C  0.17121603  0.43333908  0.99785995     1.08180
C300        C  0.19764016  0.00458191  0.57902291     1.08310
C301        C  0.29046189  0.41344200  0.98964606     1.08190
O302        O  0.32243619  0.98244687  0.95947713    -0.81400
O303        O  0.16731989  0.03688250  0.01480838    -0.81480
O304        O  0.28119197  0.07800190  0.49230127    -0.81410
O305        O  0.21441796  0.45544577  0.91838542    -0.81390
O306        O  0.19078371  0.50484055  0.94909106    -0.81440
O307        O  0.32703157  0.03874894  0.50995600    -0.81410
O308        O  0.27367259  0.50221818  0.92732372    -0.81370
O309        O  0.20856216  0.07501432  0.49265613    -0.81440
Co310      Co  0.30405256  0.98613777  0.51349671     1.51530
Co311      Co  0.20040387  0.49049231  0.00418480     1.51690
Co312      Co  0.24549784  0.05714783  0.52883100     1.51570
Co313      Co  0.23954893  0.47220435  0.96048024     1.51470
O314        O  0.25266212  0.00580075  0.00301939    -1.43330
C315        C  0.30833080  0.49438544  0.92898655     1.08220
C316        C  0.17529285  0.06903323  0.50082010     1.08310
C317        C  0.31522302  0.07085325  0.49588847     1.08240
C318        C  0.18946888  0.48206267  0.92174986     1.08220
C319        C  0.31406949  0.37741691  0.99021971    -0.07390
C320        C  0.32866517  0.36405949  0.95609424    -0.18510
C321        C  0.35799929  0.33678131  0.95413089     0.09810
C322        C  0.37400623  0.32175166  0.98750708    -0.07310
C323        C  0.35729642  0.33277436  0.52180948    -0.18550
C324        C  0.32741015  0.35974936  0.52359756     0.09840
S325        S  0.37482134  0.32538440  0.90752004    -0.33510
S326        S  0.30851684  0.37063837  0.56961148    -0.33520
H327        H  0.27168967  0.37582515  0.55878093     0.27850
H328        H  0.37098518  0.28589217  0.91387320     0.27850
H329        H  0.31845924  0.37640689  0.93033290     0.18440
H330        H  0.36820089  0.32108566  0.54763829     0.18450
C331        C  0.37925050  0.17159807  0.98880015    -0.07390
C332        C  0.36415919  0.15875884  0.95630148    -0.18510
C333        C  0.34248526  0.12636835  0.95729026     0.09810
C334        C  0.33958235  0.10346370  0.49068902    -0.07310
C335        C  0.35316869  0.11728007  0.52333160    -0.18550
C336        C  0.37016930  0.15227781  0.52324158     0.09840
S337        S  0.31874813  0.11776089  0.91525083    -0.33510
S338        S  0.37619064  0.17193274  0.56831314    -0.33520
H339        H  0.36824308  0.20988888  0.55621834     0.27850
H340        H  0.30203821  0.08362558  0.92629747     0.27850
H341        H  0.36918228  0.17405734  0.92990430     0.18440
H342        H  0.34759563  0.10225231  0.54982594     0.18450
C343        C  0.09744672  0.33918534  0.00340377    -0.07390
C344        C  0.13602413  0.33112650  0.00139825    -0.18510
C345        C  0.16142111  0.36067140  0.99915752     0.09810
C346        C  0.14801418  0.39923069  0.99977818    -0.07310
C347        C  0.10956065  0.40673709  0.50107191    -0.18550
C348        C  0.08458196  0.37784944  0.50241399     0.09840
S349        S  0.21005346  0.34718277  0.99625630    -0.33510
S350        S  0.03659088  0.39341057  0.50523835    -0.33460
H351        H  0.03213502  0.38159623  0.46880806     0.27850
H352        H  0.21807908  0.37033469  0.02577449     0.27850
H353        H  0.14645066  0.30170934  0.00202016     0.18440
H354        H  0.09824942  0.43585435  0.50081751     0.18450
C355        C  0.14738564  0.10044258  0.49716756    -0.07390
C356        C  0.13202763  0.10893800  0.96243750    -0.18510
C357        C  0.10572107  0.13924204  0.95809397     0.09810
C358        C  0.09439838  0.16111323  0.48922521    -0.07310
C359        C  0.11080428  0.15319591  0.52346615    -0.18550
C360        C  0.13744332  0.12364517  0.52759282     0.09840
S361        S  0.08717033  0.14775601  0.91270882    -0.33510
S362        S  0.15722448  0.11647313  0.57261044    -0.33520
H363        H  0.19393296  0.11207730  0.55797606     0.27850
H364        H  0.07676855  0.18633646  0.91769290     0.27850
H365        H  0.14041341  0.09178544  0.93870826     0.18440
H366        H  0.10199272  0.16956306  0.54762432     0.18450
C367        C  0.33306509  0.49668043  0.89493383    -0.07390
C368        C  0.35752423  0.02658265  0.89094056    -0.18510
C369        C  0.38312148  0.02893804  0.86056399     0.09810
C370        C  0.38878215  0.49794751  0.83670553    -0.07310
C371        C  0.36431695  0.46791546  0.84039416    -0.18550
C372        C  0.33580271  0.46762215  0.86835009     0.09840
S373        S  0.40411428  0.07385849  0.85116207    -0.33510
S374        S  0.30555491  0.42815374  0.86978340    -0.33520
H375        H  0.27392752  0.45019532  0.88027373     0.27850
H376        H  0.40742819  0.06998785  0.81223778     0.27850
H377        H  0.35657823  0.04842657  0.91141748     0.18440
H378        H  0.36785506  0.44418467  0.82182239     0.18450
C379        C  0.09236819  0.49565336  0.85540425    -0.07390
C380        C  0.12420437  0.47505126  0.84149898    -0.18510
C381        C  0.15667855  0.47097706  0.86149480     0.09810
C382        C  0.15746972  0.48669163  0.89711063    -0.07310
C383        C  0.12522958  0.00610130  0.91150802    -0.18550
C384        C  0.09326891  0.01118920  0.89106270     0.09840
S385        S  0.19648968  0.44738635  0.83902552    -0.33510
S386        S  0.05594994  0.04026699  0.91102873    -0.33520
H387        H  0.05777138  0.06657313  0.88056868     0.27850
H388        H  0.22069853  0.47590499  0.84770881     0.27850
H389        H  0.12437214  0.46293857  0.81410291     0.18440
H390        H  0.12485106  0.01802256  0.93900489     0.18450
C391        C  0.10760844  0.99827078  0.66176110    -0.07390
C392        C  0.11753040  0.46640873  0.64067885    -0.18510
C393        C  0.14961293  0.46540073  0.61701980     0.09810
C394        C  0.17124883  0.99843644  0.61190731    -0.07310
C395        C  0.16293234  0.02894369  0.63551521    -0.18550
C396        C  0.13247929  0.02853770  0.66116171     0.09840
S397        S  0.16080057  0.42086521  0.59475722    -0.33510
S398        S  0.12767843  0.06743020  0.69247995    -0.33520
H399        H  0.11621132  0.04478793  0.72364998     0.27850
H400        H  0.19894369  0.42148666  0.60137785     0.27850
H401        H  0.10047416  0.44183277  0.64297701     0.18440
H402        H  0.18001677  0.05368918  0.63372782     0.18450
C403        C  0.32337550  0.01526625  0.61286257    -0.07390
C404        C  0.34839247  0.48354967  0.61180443    -0.18510
C405        C  0.37836187  0.47991955  0.63474737     0.09810
C406        C  0.38279929  0.00659207  0.66252341    -0.07310
C407        C  0.35785764  0.03859543  0.66414276    -0.18550
C408        C  0.32838591  0.04335164  0.63946380     0.09840
S409        S  0.41334957  0.44447986  0.62207286    -0.33510
S410        S  0.29819395  0.08528723  0.64360258    -0.33520
H411        H  0.26570939  0.06662214  0.63604316     0.27850
H412        H  0.44072247  0.47169510  0.61626333     0.27850
H413        H  0.34656531  0.46245270  0.59064722     0.18440
H414        H  0.36125223  0.05989078  0.68474976     0.18450
C415        C  0.49398343  0.15080148  0.89739618    -0.07390
C416        C  0.00719236  0.16609721  0.86249125    -0.18510
C417        C  0.01015701  0.14421887  0.83053337     0.09810
C418        C  0.99944550  0.10623740  0.83272125    -0.07310
C419        C  0.48668542  0.09084597  0.86743463    -0.18550
C420        C  0.48316001  0.11251874  0.89938533     0.09840
S421        S  0.02687319  0.16624657  0.78760971    -0.33510
S422        S  0.46474468  0.08912190  0.94132560    -0.33520
H423        H  0.43359461  0.11451456  0.94402532     0.27850
H424        H  0.06176237  0.14707922  0.79028742     0.27850
H425        H  0.01548771  0.19542238  0.85983776     0.18440
H426        H  0.47960587  0.06113219  0.86992757     0.18450
C427        C  0.50562348  0.40106349  0.83834465    -0.07390
C428        C  0.49178553  0.41449926  0.87278074    -0.18510
C429        C  0.48631955  0.38974348  0.90365121     0.09810
C430        C  0.49773097  0.35072288  0.90105277    -0.07310
C431        C  0.01352338  0.33798447  0.86666156    -0.18550
C432        C  0.01670248  0.36246303  0.83519935     0.09840
S433        S  0.46111376  0.40952404  0.94350297    -0.33510
S434        S  0.03250495  0.34226009  0.79140111    -0.33520
H435        H  0.04507497  0.37627913  0.77427787     0.27850
H436        H  0.43256795  0.38342982  0.94285219     0.27850
H437        H  0.48214633  0.44406352  0.87480425     0.18440
H438        H  0.02209440  0.30826002  0.86356520     0.18450
C439        C  0.49435869  0.39838916  0.65812864    -0.07390
C440        C  0.02719331  0.39161132  0.63698138    -0.18510
C441        C  0.03017814  0.36257721  0.61115219     0.09810
C442        C  0.99822128  0.34329354  0.60229621    -0.07310
C443        C  0.46596846  0.34819078  0.62524944    -0.18550
C444        C  0.46484492  0.37339754  0.65492813     0.09840
S445        S  0.07573711  0.35037120  0.59217980    -0.33510
S446        S  0.42465776  0.37342940  0.68672021    -0.33520
H447        H  0.44522191  0.37375525  0.71904229     0.27850
H448        H  0.07017643  0.31093424  0.59432180     0.27850
H449        H  0.05093733  0.40829859  0.64144851     0.18440
H450        H  0.44167317  0.33231349  0.62010118     0.18450
C451        C  0.01582400  0.17319513  0.60694855    -0.07390
C452        C  0.04178442  0.17632259  0.63460478    -0.18510
C453        C  0.04408617  0.14938471  0.66460676     0.09810
C454        C  0.01927595  0.11886997  0.66721358    -0.07310
C455        C  0.99434210  0.11559939  0.63870585    -0.18550
C456        C  0.99309947  0.14129741  0.60853190     0.09840
S457        S  0.07865030  0.15696640  0.69802589    -0.33510
S458        S  0.46438421  0.12917193  0.57124752    -0.33520
H459        H  0.49473803  0.12562780  0.54553777     0.27850
H460        H  0.06569098  0.13177790  0.72612783     0.27850
H461        H  0.06002930  0.20015477  0.63310264     0.18440
H462        H  0.47645088  0.09148630  0.63888227     0.18450
O463        O  0.04262087  0.51530052  0.16944588    -0.81400
O464        O  0.52259322  0.95106519  0.29622848    -0.81420
O465        O  0.06815931  0.49976244  0.29477847    -0.81430
O466        O  0.48929865  0.92607480  0.21709926    -0.81370
O467        O  0.02766144  0.01016989  0.34169190    -0.81500
O468        O  0.98655139  0.96567229  0.16777368    -0.81410
O469        O  0.46880813  0.92844390  0.29190754    -0.81400
O470        O  0.07085974  0.49075524  0.21777945    -0.81440
C471        C  0.07155696  0.49980916  0.18363673     1.08290
C472        C  0.49994769  0.92636967  0.30576812     1.08180
C473        C  0.06112601  0.50305333  0.33008211     1.08310
C474        C  0.49102319  0.93187459  0.18226041     1.08190
O475        O  0.43344610  0.52885748  0.19516413    -0.81400
O476        O  0.47967279  0.55607292  0.29801343    -0.81480
O477        O  0.04677062  0.57080205  0.20834427    -0.81410
O478        O  0.41756055  0.98884312  0.27650774    -0.81390
O479        O  0.45413448  0.99286746  0.32362062    -0.81440
O480        O  0.98807074  0.57255247  0.20367319    -0.81410
O481        O  0.42331605  0.96929667  0.20190901    -0.81370
O482        O  0.03448259  0.57383991  0.28423581    -0.81440
Co483      Co  0.98786959  0.51977797  0.18789761     1.51530
Co484      Co  0.50218631  0.00495822  0.29562090     1.51690
Co485      Co  0.04809510  0.52994515  0.25007638     1.51570
Co486      Co  0.45476300  0.95834265  0.24650064     1.51470
O487        O  0.99355552  0.00312391  0.24286545    -1.43330
C488        C  0.41383322  0.00165728  0.18856776     1.08220
C489        C  0.00373480  0.57980408  0.30146085     1.08310
C490        C  0.01811112  0.58795120  0.19653563     1.08240
C491        C  0.42177270  0.99407244  0.31075998     1.08220
O492        O  0.98148262  0.70914928  0.06247089    -0.81400
O493        O  0.42795886  0.79245318  0.51663776    -0.81420
O494        O  0.01113744  0.78952745  0.06224850    -0.81430
O495        O  0.42277808  0.71121750  0.45384667    -0.81370
O496        O  0.47984743  0.84058249  0.03976290    -0.81500
O497        O  0.42637132  0.70576002  0.01429871    -0.81410
O498        O  0.42420680  0.78829303  0.45599993    -0.81400
O499        O  0.04065796  0.71673833  0.05983218    -0.81440
C500        C  0.01249566  0.70240486  0.07637157     1.08290
C501        C  0.40979708  0.79844099  0.48717718     1.08180
C502        C  0.99628855  0.82360660  0.06651186     1.08310
C503        C  0.40928538  0.69957376  0.48560643     1.08190
O504        O  0.97666218  0.66591923  0.46144790    -0.81400
O505        O  0.03813072  0.81241636  0.49720916    -0.81480
O506        O  0.06207960  0.72156482  0.98250572    -0.81410
O507        O  0.49989544  0.78724029  0.42569358    -0.81390
O508        O  0.47712967  0.83037105  0.46342193    -0.81440
O509        O  0.03218207  0.67237783  0.00756312    -0.81410
O510        O  0.49969595  0.71039947  0.42438904    -0.81370
O511        O  0.07986908  0.77802854  0.02915301    -0.81440
Co512      Co  0.97889589  0.69117949  0.01149719     1.51530
Co513      Co  0.48278207  0.79723692  0.50996564     1.51690
Co514      Co  0.03473083  0.75616710  0.01775142     1.51570
Co515      Co  0.46382000  0.74917875  0.44233961     1.51470
O516        O  0.48789114  0.74441368  0.49233461    -1.43330
C517        C  0.49093408  0.67633283  0.42977197     1.08220
C518        C  0.07108062  0.80798054  0.01001689     1.08310
C519        C  0.06070661  0.68609470  0.99073884     1.08240
C520        C  0.49184937  0.82181242  0.43183336     1.08220
O521        O  0.28967895  0.48820723  0.06661932    -0.81400
O522        O  0.15566016  0.96531886  0.50436488    -0.81420
O523        O  0.20821192  0.53822443  0.06965047    -0.81430
O524        O  0.27679202  0.92742354  0.45986500    -0.81370
O525        O  0.20477247  0.97769845  0.05718121    -0.81500
O526        O  0.28778616  0.93331065  0.01809568    -0.81410
O527        O  0.20652515  0.93209551  0.48996017    -0.81400
O528        O  0.28424037  0.54967138  0.06846968    -0.81440
C529        C  0.29619501  0.51817798  0.08263916     1.08290
C530        C  0.17121919  0.93333484  0.49786170     1.08180
C531        C  0.19763793  0.50458467  0.07902168     1.08310
C532        C  0.29046484  0.91344050  0.48964563     1.08190
O533        O  0.32243755  0.48244620  0.45947688    -0.81400
O534        O  0.16732120  0.53687834  0.51480971    -0.81480
O535        O  0.28119146  0.57800352  0.99230144    -0.81410
O536        O  0.21441939  0.95544260  0.41838591    -0.81390
O537        O  0.19078390  0.00483615  0.44909259    -0.81440
O538        O  0.32703048  0.53874983  0.00995633    -0.81410
O539        O  0.27367326  0.00221641  0.42732381    -0.81370
O540        O  0.20856184  0.57501782  0.99265570    -0.81440
Co541      Co  0.30405071  0.48613914  0.01349699     1.51530
Co542      Co  0.20040583  0.99048855  0.50418633     1.51690
Co543      Co  0.24549684  0.55715020  0.02883088     1.51570
Co544      Co  0.23955053  0.97220177  0.46048052     1.51470
O545        O  0.25266359  0.50579857  0.50301947    -1.43330
C546        C  0.30833164  0.99438444  0.42898642     1.08220
C547        C  0.17529229  0.56903744  0.00081913     1.08310
C548        C  0.31522237  0.57085426  0.99588873     1.08240
C549        C  0.18946955  0.98205869  0.42175093     1.08220
C550        C  0.31407311  0.87741595  0.49021894    -0.07390
C551        C  0.32866966  0.86405975  0.45609332    -0.18510
C552        C  0.35800410  0.83678200  0.45412980     0.09810
C553        C  0.37401011  0.82175118  0.48750599    -0.07310
C554        C  0.35729284  0.83277527  0.02181013    -0.18550
C555        C  0.32740654  0.85975032  0.02359807     0.09840
S556        S  0.37482806  0.82538762  0.40751887    -0.33510
S557        S  0.30851287  0.87063939  0.06961185    -0.33520
H558        H  0.27168582  0.87582639  0.05878090     0.27850
H559        H  0.37099025  0.78589528  0.41386935     0.27850
H560        H  0.31846433  0.87640795  0.43033205     0.18440
H561        H  0.36819743  0.82108685  0.04763899     0.18450
C562        C  0.37925173  0.67159733  0.48879923    -0.07390
C563        C  0.36416071  0.65875770  0.45630055    -0.18510
C564        C  0.34248622  0.62636753  0.45728956     0.09810
C565        C  0.33958200  0.60346429  0.99068931    -0.07310
C566        C  0.35316859  0.61728027  0.02333192    -0.18550
C567        C  0.37016881  0.65227816  0.02324217     0.09840
S568        S  0.31874925  0.61775996  0.41525007    -0.33510
S569        S  0.37619052  0.67193252  0.06831391    -0.33520
H570        H  0.36824263  0.70988876  0.05621969     0.27850
H571        H  0.30203852  0.58362520  0.42629711     0.27850
H572        H  0.36918435  0.67405572  0.42990321     0.18440
H573        H  0.34759589  0.60225214  0.04982614     0.18450
C574        C  0.09745046  0.83918105  0.50340477    -0.07390
C575        C  0.13602789  0.83112207  0.50140013    -0.18510
C576        C  0.16142489  0.86066698  0.49915964     0.09810
C577        C  0.14801782  0.89922624  0.49977968    -0.07310
C578        C  0.10955686  0.90674153  0.00107164    -0.18550
C579        C  0.08457805  0.87785379  0.00241390     0.09840
S580        S  0.21005730  0.84717852  0.49625964    -0.33510
S581        S  0.03658685  0.89341459  0.00523994    -0.33460
H582        H  0.03212937  0.88159959  0.96881019     0.27850
H583        H  0.21808231  0.87033216  0.52577670     0.27850
H584        H  0.14645438  0.80170489  0.50202251     0.18440
H585        H  0.09824572  0.93585882  0.00081813     0.18450
C586        C  0.14738565  0.60044738  0.99716628    -0.07390
C587        C  0.13202836  0.60893411  0.46243845    -0.18510
C588        C  0.10572191  0.63923826  0.45809504     0.09810
C589        C  0.09439811  0.66111783  0.98922373    -0.07310
C590        C  0.11080516  0.65320168  0.02346428    -0.18550
C591        C  0.13744435  0.62365105  0.02759104     0.09840
S592        S  0.08717218  0.64775322  0.41270958    -0.33510
S593        S  0.15722649  0.61648005  0.07260835    -0.33520
H594        H  0.19393455  0.61208153  0.05797348     0.27850
H595        H  0.07677059  0.68633362  0.41769412     0.27850
H596        H  0.14041479  0.59178222  0.43870891     0.18440
H597        H  0.10199417  0.66956947  0.04762220     0.18450
C598        C  0.33306567  0.99668006  0.39493369    -0.07390
C599        C  0.35752505  0.52658220  0.39094119    -0.18510
C600        C  0.38312251  0.52893792  0.36056488     0.09810
C601        C  0.38878301  0.99794771  0.33670591    -0.07310
C602        C  0.36431767  0.96791578  0.34039386    -0.18550
C603        C  0.33580333  0.96762214  0.36834961     0.09840
S604        S  0.40411580  0.57385827  0.35116392    -0.33510
S605        S  0.30555572  0.92815359  0.36978242    -0.33520
H606        H  0.27392827  0.95019491  0.38027306     0.27850
H607        H  0.40742982  0.56998837  0.31223954     0.27850
H608        H  0.35657910  0.54842571  0.41141855     0.18440
H609        H  0.36785578  0.94418528  0.32182173     0.18450
C610        C  0.09236932  0.99565110  0.35540402    -0.07390
C611        C  0.12420575  0.97504951  0.34149856    -0.18510
C612        C  0.15667960  0.97097430  0.36149499     0.09810
C613        C  0.15747035  0.98668764  0.39711148    -0.07310
C614        C  0.12522994  0.50609660  0.41150899    -0.18550
C615        C  0.09326955  0.51118529  0.39106326     0.09840
S616        S  0.19649090  0.94738393  0.33902573    -0.33510
S617        S  0.05595023  0.54026209  0.41103002    -0.33520
H618        H  0.05777225  0.56656971  0.38057123     0.27850
H619        H  0.22069931  0.97590293  0.34770908     0.27850
H620        H  0.12437393  0.96293791  0.31410197     0.18440
H621        H  0.12485099  0.51801689  0.43900632     0.18450
C622        C  0.10760731  0.49827190  0.16176054    -0.07390
C623        C  0.11752908  0.96641012  0.14067779    -0.18510
C624        C  0.14961134  0.96540265  0.11701847     0.09810
C625        C  0.17124697  0.49843876  0.11190617    -0.07310
C626        C  0.16293065  0.52894562  0.13551456    -0.18550
C627        C  0.13247803  0.52853891  0.16116153     0.09840
S628        S  0.16079890  0.92086746  0.09475524    -0.33510
S629        S  0.12767781  0.56743038  0.19248104    -0.33520
H630        H  0.11621073  0.54478727  0.22365049     0.27850
H631        H  0.19894210  0.92148893  0.10137552     0.27850
H632        H  0.10047316  0.94183428  0.14297579     0.18440
H633        H  0.18001488  0.55369124  0.13372729     0.18450
C634        C  0.32337304  0.51526752  0.11286390    -0.07390
C635        C  0.34839021  0.98355026  0.11180574    -0.18510
C636        C  0.37835983  0.97992006  0.13474847     0.09810
C637        C  0.38279743  0.50659267  0.16252447    -0.07310
C638        C  0.35785870  0.53859858  0.16414089    -0.18550
C639        C  0.32838677  0.54335509  0.13946211     0.09840
S640        S  0.41334696  0.94447985  0.12207394    -0.33510
S641        S  0.29819897  0.58529411  0.14359721    -0.33520
H642        H  0.26571214  0.56663104  0.13604163     0.27850
H643        H  0.44072034  0.97169457  0.11626438     0.27850
H644        H  0.34656249  0.96245289  0.09064901     0.18440
H645        H  0.36125586  0.55989587  0.18474534     0.18450
C646        C  0.49398567  0.65079968  0.39739702    -0.07390
C647        C  0.00719437  0.66609571  0.36249212    -0.18510
C648        C  0.01015883  0.64421766  0.33053415     0.09810
C649        C  0.99944721  0.60623627  0.33272194    -0.07310
C650        C  0.48668746  0.59084448  0.36743529    -0.18550
C651        C  0.48316231  0.61251696  0.39938611     0.09840
S652        S  0.02687497  0.66624561  0.28761059    -0.33510
S653        S  0.46474740  0.58911986  0.44132644    -0.33520
H654        H  0.43359681  0.61451187  0.44402604     0.27850
H655        H  0.06176340  0.64707645  0.29028697     0.27850
H656        H  0.01548971  0.69542090  0.35983872     0.18440
H657        H  0.47960783  0.56113071  0.36992804     0.18450
C658        C  0.50562417  0.90106202  0.33834340    -0.07390
C659        C  0.49178830  0.91449776  0.37278021    -0.18510
C660        C  0.48632310  0.88974184  0.40365074     0.09810
C661        C  0.49773334  0.85072094  0.40105163    -0.07310
C662        C  0.01352344  0.83798240  0.36665950    -0.18550
C663        C  0.01670166  0.86246120  0.33519729     0.09840
S664        S  0.46111967  0.90952281  0.44350365    -0.33510
S665        S  0.03250105  0.84225818  0.29139815    -0.33520
H666        H  0.04507113  0.87627691  0.27427434     0.27850
H667        H  0.43257277  0.88342976  0.44285381     0.27850
H668        H  0.48215007  0.94406227  0.37480438     0.18440
H669        H  0.02209325  0.80825772  0.36356252     0.18450
C670        C  0.49435710  0.89838990  0.15812928    -0.07390
C671        C  0.02719127  0.89161397  0.13697978    -0.18510
C672        C  0.03017586  0.86257953  0.11115106     0.09810
C673        C  0.99821918  0.84329470  0.10229678    -0.07310
C674        C  0.46596543  0.84819239  0.12525044    -0.18550
C675        C  0.46484276  0.87339901  0.15492915     0.09840
S676        S  0.07573465  0.85037367  0.09217827    -0.33510
S677        S  0.42465616  0.87343128  0.18672201    -0.33520
H678        H  0.44522100  0.87375671  0.21904366     0.27850
H679        H  0.07017438  0.81093663  0.09432141     0.27850
H680        H  0.05093457  0.90830233  0.14144523     0.18440
H681        H  0.44166975  0.83231587  0.12010225     0.18450
C682        C  0.01582412  0.67319599  0.10694784    -0.07390
C683        C  0.04178441  0.67632348  0.13460421    -0.18510
C684        C  0.04408620  0.64938551  0.16460622     0.09810
C685        C  0.01927608  0.61887062  0.16721304    -0.07310
C686        C  0.99434249  0.61559994  0.13870509    -0.18550
C687        C  0.99309987  0.64129802  0.10853110     0.09840
S688        S  0.07865019  0.65696741  0.19802542    -0.33510
S689        S  0.46438462  0.62917240  0.07124685    -0.33520
H690        H  0.49473811  0.62563062  0.04553644     0.27850
H691        H  0.06569139  0.63177827  0.22612702     0.27850
H692        H  0.06002912  0.70015581  0.13310223     0.18440
H693        H  0.47645134  0.59148678  0.13888160     0.18450
O694        O  0.04262184  0.51529970  0.66944618    -0.81400
O695        O  0.52259280  0.95106597  0.79622946    -0.81420
O696        O  0.06815835  0.49976311  0.79477902    -0.81430
O697        O  0.48929898  0.92607376  0.71709910    -0.81370
O698        O  0.02766025  0.01017140  0.84169207    -0.81500
O699        O  0.98655258  0.96567144  0.66777356    -0.81410
O700        O  0.46880829  0.92844359  0.79190764    -0.81400
O701        O  0.07086056  0.49075528  0.71778019    -0.81440
C702        C  0.07155791  0.49980857  0.68363730     1.08290
C703        C  0.49994748  0.92637026  0.80576895     1.08180
C704        C  0.06112485  0.50305480  0.83008247     1.08310
C705        C  0.49102400  0.93187365  0.68226021     1.08190
O706        O  0.43344702  0.52885671  0.69516402    -0.81400
O707        O  0.47967167  0.55607355  0.79801268    -0.81480
O708        O  0.04677090  0.57080158  0.70834431    -0.81410
O709        O  0.41756017  0.98884204  0.77650750    -0.81390
O710        O  0.45413366  0.99286767  0.82362055    -0.81440
O711        O  0.98807109  0.57255153  0.70367350    -0.81410
O712        O  0.42331679  0.96929574  0.70190863    -0.81370
O713        O  0.03448160  0.57384040  0.78423572    -0.81440
Co714      Co  0.98787038  0.51977718  0.68789761     1.51530
Co715      Co  0.50218549  0.00495877  0.79562106     1.51690
Co716      Co  0.04809493  0.52994526  0.75007665     1.51570
Co717      Co  0.45476316  0.95834175  0.74650051     1.51470
O718        O  0.99355578  0.00312332  0.74286538    -1.43330
C719        C  0.41383409  0.00165635  0.68856741     1.08220
C720        C  0.00373356  0.57980476  0.80146033     1.08310
C721        C  0.01811128  0.58795053  0.69653591     1.08240
C722        C  0.42177198  0.99407194  0.81075973     1.08220
O723        O  0.98148332  0.70914834  0.56247103    -0.81400
O724        O  0.42795541  0.79245376  0.01663840    -0.81420
O725        O  0.01114018  0.78952578  0.56224831    -0.81430
O726        O  0.42277607  0.71121894  0.95384722    -0.81370
O727        O  0.47985185  0.84058132  0.53976141    -0.81500
O728        O  0.42637231  0.70575947  0.51429824    -0.81410
O729        O  0.42420382  0.78829456  0.95600053    -0.81400
O730        O  0.04065892  0.71673607  0.55983270    -0.81440
C731        C  0.01249615  0.70240356  0.57637203     1.08290
C732        C  0.40979369  0.79844183  0.98717784     1.08180
C733        C  0.99629159  0.82360515  0.56651124     1.08310
C734        C  0.40928398  0.69957472  0.98560706     1.08190
O735        O  0.97666076  0.66592092  0.96144743    -0.81400
O736        O  0.03812690  0.81241976  0.99720948    -0.81480
O737        O  0.06208146  0.72156102  0.48250651    -0.81410
O738        O  0.49989253  0.78724238  0.92569448    -0.81390
O739        O  0.47712612  0.83037295  0.96342283    -0.81440
O740        O  0.03218263  0.67237511  0.50756436    -0.81410
O741        O  0.49969343  0.71040165  0.92438830    -0.81370
O742        O  0.07987183  0.77802460  0.52915370    -0.81440
Co743      Co  0.97889686  0.69117800  0.51149751     1.51530
Co744      Co  0.48277860  0.79723866  0.00996646     1.51690
Co745      Co  0.03473318  0.75616438  0.51775164     1.51570
Co746      Co  0.46381741  0.74918059  0.94233995     1.51470
O747        O  0.48788898  0.74441559  0.99233476    -1.43330
C748        C  0.49093208  0.67633482  0.92977121     1.08220
C749        C  0.07108412  0.80797662  0.51001729     1.08310
C750        C  0.06070753  0.68609102  0.49073996     1.08240
C751        C  0.49184642  0.82181445  0.93183445     1.08220
O752        O  0.28968090  0.48820550  0.56661908    -0.81400
O753        O  0.15565738  0.96532349  0.00436212    -0.81420
O754        O  0.20821354  0.53822175  0.56965110    -0.81430
O755        O  0.27678946  0.92742518  0.95986525    -0.81370
O756        O  0.20477550  0.97769553  0.55718284    -0.81500
O757        O  0.28778888  0.93330921  0.51809536    -0.81410
O758        O  0.20652216  0.93209897  0.98995961    -0.81400
O759        O  0.28424163  0.54966967  0.56846947    -0.81440
C760        C  0.29619672  0.51817636  0.58263878     1.08290
C761        C  0.17121597  0.93333903  0.99785996     1.08180
C762        C  0.19764013  0.50458194  0.57902293     1.08310
C763        C  0.29046188  0.91344187  0.98964599     1.08190
O764        O  0.32243623  0.48244701  0.95947712    -0.81400
O765        O  0.16731989  0.53688258  0.01480827    -0.81480
O766        O  0.28119194  0.57800192  0.49230128    -0.81410
O767        O  0.21441792  0.95544577  0.91838547    -0.81390
O768        O  0.19078370  0.00484053  0.94909114    -0.81440
O769        O  0.32703153  0.53874897  0.50995606    -0.81410
O770        O  0.27367254  0.00221816  0.92732382    -0.81370
O771        O  0.20856214  0.57501432  0.49265612    -0.81440
Co772      Co  0.30405252  0.48613780  0.51349679     1.51530
Co773      Co  0.20040385  0.99049221  0.00418488     1.51690
Co774      Co  0.24549780  0.55714786  0.52883101     1.51570
Co775      Co  0.23954889  0.97220429  0.96048032     1.51470
O776        O  0.25266211  0.50580092  0.00301926    -1.43330
C777        C  0.30833075  0.99438537  0.92898660     1.08220
C778        C  0.17529282  0.56903323  0.50082010     1.08310
C779        C  0.31522298  0.57085328  0.49588850     1.08240
C780        C  0.18946886  0.98206268  0.92174992     1.08220
C781        C  0.31406957  0.87741685  0.99021947    -0.07390
C782        C  0.32866565  0.86405994  0.95609396    -0.18510
C783        C  0.35799987  0.83678189  0.95413055     0.09810
C784        C  0.37400638  0.82175170  0.98750674    -0.07310
C785        C  0.35729637  0.83277430  0.52180940    -0.18550
C786        C  0.32741010  0.85974930  0.52359748     0.09840
S787        S  0.37482268  0.82538596  0.90751968    -0.33510
S788        S  0.30851674  0.87063827  0.56961139    -0.33520
H789        H  0.27168960  0.87582514  0.55878080     0.27850
H790        H  0.37098612  0.78589367  0.91387187     0.27850
H791        H  0.31846002  0.87640771  0.93033264     0.18440
H792        H  0.36820080  0.82108556  0.54763822     0.18450
C793        C  0.37925054  0.67159823  0.98879993    -0.07390
C794        C  0.36415931  0.65875894  0.95630125    -0.18510
C795        C  0.34248531  0.62636849  0.95729006     0.09810
C796        C  0.33958233  0.60346372  0.49068905    -0.07310
C797        C  0.35316867  0.61728009  0.52333163    -0.18550
C798        C  0.37016929  0.65227783  0.52324160     0.09840
S799        S  0.31874824  0.61776100  0.91525060    -0.33510
S800        S  0.37619062  0.67193278  0.56831315    -0.33520
H801        H  0.36824307  0.70988891  0.55621834     0.27850
H802        H  0.30203821  0.58362576  0.92629729     0.27850
H803        H  0.36918250  0.67405737  0.92990405     0.18440
H804        H  0.34759560  0.60225234  0.54982597     0.18450
C805        C  0.09744661  0.83918534  0.00340381    -0.07390
C806        C  0.13602401  0.83112648  0.00139811    -0.18510
C807        C  0.16142100  0.86067136  0.99915736     0.09810
C808        C  0.14801410  0.89923065  0.99977819    -0.07310
C809        C  0.10956065  0.90673709  0.50107207    -0.18550
C810        C  0.08458195  0.87784945  0.50241416     0.09840
S811        S  0.21005334  0.84718270  0.99625585    -0.33510
S812        S  0.03659088  0.89341059  0.50523863    -0.33460
H813        H  0.03213493  0.88159626  0.46880836     0.27850
H814        H  0.21807904  0.87033444  0.02577416     0.27850
H815        H  0.14645053  0.80170931  0.00201990     0.18440
H816        H  0.09824942  0.93585435  0.50081776     0.18450
C817        C  0.14738561  0.60044258  0.49716756    -0.07390
C818        C  0.13202757  0.60893808  0.96243741    -0.18510
C819        C  0.10572101  0.63924212  0.95809390     0.09810
C820        C  0.09439837  0.66111324  0.48922520    -0.07310
C821        C  0.11080429  0.65319594  0.52346613    -0.18550
C822        C  0.13744332  0.62364520  0.52759280     0.09840
S823        S  0.08717027  0.64775612  0.91270876    -0.33510
S824        S  0.15722451  0.61647319  0.57261042    -0.33520
H825        H  0.19393298  0.61207734  0.55797602     0.27850
H826        H  0.07676851  0.68633657  0.91769286     0.27850
H827        H  0.14041335  0.59178554  0.93870815     0.18440
H828        H  0.10199274  0.66956311  0.54762430     0.18450
C829        C  0.33306502  0.99668040  0.89493385    -0.07390
C830        C  0.35752425  0.52658272  0.89094048    -0.18510
C831        C  0.38312148  0.52893812  0.86056390     0.09810
C832        C  0.38878212  0.99794745  0.83670560    -0.07310
C833        C  0.36431685  0.96791546  0.84039415    -0.18550
C834        C  0.33580258  0.96762217  0.86835006     0.09840
S835        S  0.40411428  0.57385858  0.85116197    -0.33510
S836        S  0.30555464  0.92815389  0.86978320    -0.33520
H837        H  0.27392734  0.95019553  0.88027368     0.27850
H838        H  0.40742822  0.56998792  0.81223768     0.27850
H839        H  0.35657822  0.54842667  0.91141738     0.18440
H840        H  0.36785491  0.94418470  0.82182234     0.18450
C841        C  0.09236819  0.99565339  0.85540427    -0.07390
C842        C  0.12420439  0.97505132  0.84149899    -0.18510
C843        C  0.15667856  0.97097713  0.86149483     0.09810
C844        C  0.15746971  0.98669167  0.89711067    -0.07310
C845        C  0.12522960  0.50610128  0.91150797    -0.18550
C846        C  0.09326892  0.51118920  0.89106267     0.09840
S847        S  0.19648971  0.94738646  0.83902554    -0.33510
S848        S  0.05594998  0.54026702  0.91102869    -0.33520
H849        H  0.05777141  0.56657313  0.88056861     0.27850
H850        H  0.22069850  0.97590516  0.84770881     0.27850
H851        H  0.12437218  0.96293864  0.81410291     0.18440
H852        H  0.12485110  0.51802257  0.93900484     0.18450
C853        C  0.10760841  0.49827080  0.66176111    -0.07390
C854        C  0.11753040  0.96640873  0.64067882    -0.18510
C855        C  0.14961293  0.96540071  0.61701977     0.09810
C856        C  0.17124880  0.49843647  0.61190734    -0.07310
C857        C  0.16293230  0.52894373  0.63551522    -0.18550
C858        C  0.13247925  0.52853773  0.66116172     0.09840
S859        S  0.16080056  0.92086519  0.59475718    -0.33510
S860        S  0.12767838  0.56743022  0.69247997    -0.33520
H861        H  0.11621128  0.54478795  0.72364999     0.27850
H862        H  0.19894368  0.92148663  0.60137780     0.27850
H863        H  0.10047415  0.94183281  0.64297695     0.18440
H864        H  0.18001672  0.55368923  0.63372782     0.18450
C865        C  0.32337537  0.51526630  0.61286267    -0.07390
C866        C  0.34839293  0.98354991  0.61180400    -0.18510
C867        C  0.37836229  0.97991982  0.63474700     0.09810
C868        C  0.38279925  0.50659211  0.66252341    -0.07310
C869        C  0.35785789  0.53859571  0.66414249    -0.18550
C870        C  0.32838611  0.54335192  0.63946357     0.09840
S871        S  0.41335041  0.94448068  0.62207216    -0.33510
S872        S  0.29819455  0.58528784  0.64360201    -0.33520
H873        H  0.26570977  0.56662292  0.63604301     0.27850
H874        H  0.44072296  0.97169633  0.61626296     0.27850
H875        H  0.34656604  0.96245318  0.59064652     0.18440
H876        H  0.36125274  0.55989126  0.68474922     0.18450
C877        C  0.49398359  0.65080153  0.89739616    -0.07390
C878        C  0.00719231  0.66609721  0.86249124    -0.18510
C879        C  0.01015696  0.64421887  0.83053336     0.09810
C880        C  0.99944547  0.60623740  0.83272126    -0.07310
C881        C  0.48668545  0.59084605  0.86743460    -0.18550
C882        C  0.48316009  0.61251881  0.89938530     0.09840
S883        S  0.02687311  0.66624658  0.78760969    -0.33510
S884        S  0.46474472  0.58912198  0.94132556    -0.33520
H885        H  0.43359468  0.61451467  0.94402527     0.27850
H886        H  0.06176232  0.64707931  0.79028743     0.27850
H887        H  0.01548765  0.69542239  0.85983775     0.18440
H888        H  0.47960586  0.56113228  0.86992753     0.18450
C889        C  0.50562361  0.90106335  0.83834468    -0.07390
C890        C  0.49178669  0.91449939  0.87278102    -0.18510
C891        C  0.48632082  0.88974373  0.90365163     0.09810
C892        C  0.49773134  0.85072290  0.90105299    -0.07310
C893        C  0.01352332  0.83798446  0.86666156    -0.18550
C894        C  0.01670243  0.86246302  0.83519935     0.09840
S895        S  0.46111612  0.90952475  0.94350377    -0.33510
S896        S  0.03250486  0.84226007  0.79140110    -0.33520
H897        H  0.04507490  0.87627909  0.77427786     0.27850
H898        H  0.43256948  0.88343145  0.94285322     0.27850
H899        H  0.48214814  0.94406385  0.87480467     0.18440
H900        H  0.02209430  0.80826000  0.86356519     0.18450
C901        C  0.49435859  0.89838909  0.65812871    -0.07390
C902        C  0.02719335  0.89161118  0.63698148    -0.18510
C903        C  0.03017815  0.86257707  0.61115229     0.09810
C904        C  0.99822125  0.84329351  0.60229624    -0.07310
C905        C  0.46596819  0.84819101  0.62524926    -0.18550
C906        C  0.46484463  0.87339778  0.65492794     0.09840
S907        S  0.07573712  0.85037095  0.59217996    -0.33510
S908        S  0.42465721  0.87343001  0.68671969    -0.33520
H909        H  0.44522104  0.87375600  0.71904196     0.27850
H910        H  0.07017635  0.81093400  0.59432196     0.27850
H911        H  0.05093740  0.90829834  0.64144868     0.18440
H912        H  0.44167280  0.83231396  0.62010081     0.18450
C913        C  0.01582397  0.67319513  0.60694855    -0.07390
C914        C  0.04178440  0.67632258  0.63460478    -0.18510
C915        C  0.04408614  0.64938470  0.66460677     0.09810
C916        C  0.01927590  0.61886998  0.66721360    -0.07310
C917        C  0.99434203  0.61559942  0.63870589    -0.18550
C918        C  0.99309941  0.64129743  0.60853193     0.09840
S919        S  0.07865028  0.65696639  0.69802588    -0.33510
S920        S  0.46438419  0.62917197  0.57124756    -0.33520
H921        H  0.49473799  0.62562783  0.54553779     0.27850
H922        H  0.06569095  0.63177791  0.72612784     0.27850
H923        H  0.06002930  0.70015474  0.63310263     0.18440
H924        H  0.47645092  0.59148631  0.63888228     0.18450
O925        O  0.54262080  0.01530046  0.16944580    -0.81400
O926        O  0.02259326  0.45106521  0.29622847    -0.81420
O927        O  0.56815931  0.99976238  0.29477844    -0.81430
O928        O  0.98929834  0.42607479  0.21709917    -0.81370
O929        O  0.52766146  0.51016984  0.34169192    -0.81500
O930        O  0.48655140  0.46567233  0.16777368    -0.81410
O931        O  0.96880817  0.42844388  0.29190757    -0.81400
O932        O  0.57085976  0.99075522  0.21777934    -0.81440
C933        C  0.57155689  0.99980911  0.18363660     1.08290
C934        C  0.99994775  0.42636966  0.30576811     1.08180
C935        C  0.56112601  0.00305330  0.33008208     1.08310
C936        C  0.99102305  0.43187467  0.18226032     1.08190
O937        O  0.93344608  0.02885746  0.19516407    -0.81400
O938        O  0.97967276  0.05607296  0.29801340    -0.81480
O939        O  0.54677075  0.07080199  0.20834420    -0.81410
O940        O  0.91756057  0.48884317  0.27650791    -0.81390
O941        O  0.95413455  0.49286740  0.32362075    -0.81440
O942        O  0.48807087  0.07255247  0.20367314    -0.81410
O943        O  0.92331587  0.46929661  0.20190932    -0.81370
O944        O  0.53448268  0.07383988  0.28423578    -0.81440
Co945      Co  0.48786963  0.01977796  0.18789762     1.51530
Co946      Co  0.00218631  0.50495822  0.29562094     1.51690
Co947      Co  0.54809518  0.02994512  0.25007632     1.51570
Co948      Co  0.95476293  0.45834267  0.24650075     1.51470
O949        O  0.49355555  0.50312387  0.24286547    -1.43330
C950        C  0.91383304  0.50165711  0.18856783     1.08220
C951        C  0.50373489  0.07980407  0.30146080     1.08310
C952        C  0.51811127  0.08795116  0.19653555     1.08240
C953        C  0.92177275  0.49407243  0.31076014     1.08220
O954        O  0.48148272  0.20914926  0.06247088    -0.81400
O955        O  0.92795890  0.29245321  0.51663777    -0.81420
O956        O  0.51113750  0.28952746  0.06224848    -0.81430
O957        O  0.92277807  0.21121749  0.45384669    -0.81370
O958        O  0.97984828  0.34058290  0.03976240    -0.81500
O959        O  0.92637125  0.20576007  0.01429884    -0.81410
O960        O  0.92420679  0.28829303  0.45599996    -0.81400
O961        O  0.54065805  0.21673834  0.05983213    -0.81440
C962        C  0.51249577  0.20240484  0.07637153     1.08290
C963        C  0.90979709  0.29844100  0.48717721     1.08180
C964        C  0.49628863  0.32360661  0.06651183     1.08310
C965        C  0.90928538  0.19957374  0.48560645     1.08190
O966        O  0.47666218  0.16591922  0.46144787    -0.81400
O967        O  0.53813074  0.31241632  0.49720909    -0.81480
O968        O  0.56207963  0.22156486  0.98250567    -0.81410
O969        O  0.99989542  0.28724028  0.42569356    -0.81390
O970        O  0.97712967  0.33037104  0.46342190    -0.81440
O971        O  0.53218213  0.17237785  0.00756305    -0.81410
O972        O  0.99969594  0.21039947  0.42438904    -0.81370
O973        O  0.57986912  0.27802855  0.02915297    -0.81440
Co974      Co  0.47889594  0.19117949  0.01149718     1.51530
Co975      Co  0.98278211  0.29723694  0.50996562     1.51690
Co976      Co  0.53473087  0.25616712  0.01775139     1.51570
Co977      Co  0.96381999  0.24917875  0.44233961     1.51470
O978        O  0.98789115  0.24441368  0.49233461    -1.43330
C979        C  0.99093407  0.17633283  0.42977197     1.08220
C980        C  0.57108068  0.30798054  0.01001685     1.08310
C981        C  0.56070666  0.18609474  0.99073877     1.08240
C982        C  0.99184936  0.32181241  0.43183333     1.08220
O983        O  0.78967897  0.98820704  0.06661928    -0.81400
O984        O  0.65566015  0.46531882  0.50436495    -0.81420
O985        O  0.70821184  0.03822428  0.06965038    -0.81430
O986        O  0.77679203  0.42742355  0.45986507    -0.81370
O987        O  0.70477248  0.47769856  0.05718114    -0.81500
O988        O  0.78778609  0.43331078  0.01809571    -0.81410
O989        O  0.70652516  0.43209551  0.48996019    -0.81400
O990        O  0.78424031  0.04967119  0.06846972    -0.81440
C991        C  0.79619498  0.01817777  0.08263916     1.08290
C992        C  0.67121919  0.43333482  0.49786172     1.08180
C993        C  0.69763774  0.00458452  0.07902144     1.08310
C994        C  0.79046484  0.41344052  0.48964571     1.08190
O995        O  0.82243754  0.98244619  0.45947686    -0.81400
O996        O  0.66732119  0.03687834  0.51480969    -0.81480
O997        O  0.78119153  0.07800345  0.99230155    -0.81410
O998        O  0.71441941  0.45544259  0.41838594    -0.81390
O999        O  0.69078389  0.50483611  0.44909264    -0.81440
O1000       O  0.82703052  0.03874967  0.00995636    -0.81410
O1001       O  0.77367327  0.50221642  0.42732387    -0.81370
O1002       O  0.70856194  0.07501789  0.99265566    -0.81440
Co1003     Co  0.80405072  0.98613900  0.01349693     1.51530
Co1004     Co  0.70040582  0.49048854  0.50418638     1.51690
Co1005     Co  0.74549685  0.05715010  0.02883089     1.51570
Co1006     Co  0.73955054  0.47220177  0.46048056     1.51470
O1007       O  0.75266358  0.00579855  0.50301947    -1.43330
C1008       C  0.80833165  0.49438445  0.42898650     1.08220
C1009       C  0.67529237  0.06903753  0.00081899     1.08310
C1010       C  0.81522243  0.07085413  0.99588882     1.08240
C1011       C  0.68946956  0.48205866  0.42175097     1.08220
C1012       C  0.81407312  0.37741596  0.49021902    -0.07390
C1013       C  0.82866962  0.36405971  0.45609340    -0.18510
C1014       C  0.85800405  0.33678196  0.45412986     0.09810
C1015       C  0.87401011  0.32175119  0.48750605    -0.07310
C1016       C  0.85729304  0.33277565  0.02181047    -0.18550
C1017       C  0.82740672  0.35975068  0.02359837     0.09840
S1018       S  0.87482792  0.32538749  0.40751893    -0.33510
S1019       S  0.80851331  0.37064013  0.06961214    -0.33520
H1020       H  0.77168615  0.37582667  0.05878139     0.27850
H1021       H  0.87099016  0.28589516  0.41386950     0.27850
H1022       H  0.81846424  0.37640788  0.43033213     0.18440
H1023       H  0.86819789  0.32108757  0.04763934     0.18450
C1024       C  0.87925174  0.17159730  0.48879925    -0.07390
C1025       C  0.86416070  0.15875769  0.45630058    -0.18510
C1026       C  0.84248621  0.12636753  0.45728959     0.09810
C1027       C  0.83958209  0.10346413  0.99068942    -0.07310
C1028       C  0.85316875  0.11728003  0.02333204    -0.18550
C1029       C  0.87016893  0.15227794  0.02324233     0.09840
S1030       S  0.81874923  0.11775997  0.41525010    -0.33510
S1031       S  0.87619079  0.17193215  0.06831411    -0.33520
H1032       H  0.86824272  0.20988841  0.05622005     0.27850
H1033       H  0.80203851  0.08362520  0.42629713     0.27850
H1034       H  0.86918433  0.17405573  0.42990324     0.18440
H1035       H  0.84759613  0.10225182  0.04982623     0.18450
C1036       C  0.59745050  0.33918100  0.50340465    -0.07390
C1037       C  0.63602793  0.33112204  0.50140021    -0.18510
C1038       C  0.66142492  0.36066696  0.49915977     0.09810
C1039       C  0.64801783  0.39922622  0.49977963    -0.07310
C1040       C  0.60955690  0.40674155  0.00107146    -0.18550
C1041       C  0.58457810  0.37785380  0.00241372     0.09840
S1042       S  0.71005734  0.34717851  0.49626011    -0.33510
S1043       S  0.53658689  0.39341458  0.00523964    -0.33460
H1044       H  0.53212951  0.38159959  0.96880986     0.27850
H1045       H  0.71808218  0.37033232  0.52577710     0.27850
H1046       H  0.64645443  0.30170487  0.50202275     0.18440
H1047       H  0.59824576  0.43585883  0.00081782     0.18450
C1048       C  0.64738577  0.10044750  0.99716614    -0.07390
C1049       C  0.63202837  0.10893411  0.46243844    -0.18510
C1050       C  0.60572191  0.13923825  0.45809502     0.09810
C1051       C  0.59439817  0.16111789  0.98922364    -0.07310
C1052       C  0.61080527  0.15320178  0.02346417    -0.18550
C1053       C  0.63744448  0.12365116  0.02759091     0.09840
S1054       S  0.58717219  0.14775320  0.41270956    -0.33510
S1055       S  0.65722663  0.11648013  0.07260822    -0.33520
H1056       H  0.69393468  0.11208149  0.05797337     0.27850
H1057       H  0.57677058  0.18633361  0.41769410     0.27850
H1058       H  0.64041480  0.09178221  0.43870890     0.18440
H1059       H  0.60199429  0.16956956  0.04762210     0.18450
C1060       C  0.83306570  0.49668006  0.39493380    -0.07390
C1061       C  0.85752502  0.02658221  0.39094118    -0.18510
C1062       C  0.88312248  0.02893793  0.36056487     0.09810
C1063       C  0.88878309  0.49794768  0.33670609    -0.07310
C1064       C  0.86431776  0.46791574  0.34039403    -0.18550
C1065       C  0.83580338  0.46762213  0.36834974     0.09840
S1066       S  0.90411576  0.07385829  0.35116392    -0.33510
S1067       S  0.80555576  0.42815358  0.36978254    -0.33520
H1068       H  0.77392831  0.45019492  0.38027309     0.27850
H1069       H  0.90742979  0.06998840  0.31223954     0.27850
H1070       H  0.85657907  0.04842571  0.41141855     0.18440
H1071       H  0.86785589  0.44418524  0.32182192     0.18450
C1072       C  0.59236935  0.49565105  0.35540405    -0.07390
C1073       C  0.62420578  0.47504947  0.34149858    -0.18510
C1074       C  0.65667963  0.47097427  0.36149502     0.09810
C1075       C  0.65747036  0.48668760  0.39711151    -0.07310
C1076       C  0.62522993  0.00609662  0.41150895    -0.18550
C1077       C  0.59326955  0.01118530  0.39106323     0.09840
S1078       S  0.69649094  0.44738393  0.33902576    -0.33510
S1079       S  0.55595023  0.04026212  0.41102997    -0.33520
H1080       H  0.55777228  0.06656972  0.38057116     0.27850
H1081       H  0.72069934  0.47590294  0.34770912     0.27850
H1082       H  0.62437397  0.46293788  0.31410199     0.18440
H1083       H  0.62485100  0.01801693  0.43900628     0.18450
C1084       C  0.60760715  0.99827179  0.16176030    -0.07390
C1085       C  0.61752912  0.46641017  0.14067778    -0.18510
C1086       C  0.64961137  0.46540274  0.11701842     0.09810
C1087       C  0.67124676  0.99843853  0.11190590    -0.07310
C1088       C  0.66293074  0.02894522  0.13551459    -0.18550
C1089       C  0.63247816  0.02853849  0.16116163     0.09840
S1090       S  0.66079897  0.42086754  0.09475521    -0.33510
S1091       S  0.62767818  0.06742979  0.19248138    -0.33520
H1092       H  0.61621096  0.04478661  0.22365071     0.27850
H1093       H  0.69894217  0.42148905  0.10137549     0.27850
H1094       H  0.60047325  0.44183431  0.14297580     0.18440
H1095       H  0.68001513  0.05369063  0.13372753     0.18450
C1096       C  0.82337300  0.01526733  0.11286390    -0.07390
C1097       C  0.84838704  0.48354819  0.11180883    -0.18510
C1098       C  0.87835674  0.47991762  0.13475143     0.09810
C1099       C  0.88279741  0.00659259  0.16252444    -0.07310
C1100       C  0.85785858  0.03859841  0.16414094    -0.18550
C1101       C  0.82838663  0.04335487  0.13946217     0.09840
S1102       S  0.91334083  0.44447336  0.12207960    -0.33510
S1103       S  0.79819870  0.08529378  0.14359735    -0.33520
H1104       H  0.76571194  0.06663062  0.13604171     0.27850
H1105       H  0.94071658  0.47168517  0.11626724     0.27850
H1106       H  0.84655757  0.46244914  0.09065401     0.18440
H1107       H  0.86125566  0.05989567  0.18474544     0.18450
C1108       C  0.99398567  0.15079968  0.39739701    -0.07390
C1109       C  0.50719444  0.16609570  0.36249210    -0.18510
C1110       C  0.51015894  0.14421764  0.33053413     0.09810
C1111       C  0.49944729  0.10623626  0.33272189    -0.07310
C1112       C  0.98668743  0.09084451  0.36743527    -0.18550
C1113       C  0.98316229  0.11251697  0.39938610     0.09840
S1114       S  0.52687518  0.16624558  0.28761059    -0.33510
S1115       S  0.96474737  0.08911986  0.44132641    -0.33520
H1116       H  0.93359680  0.11451189  0.44402603     0.27850
H1117       H  0.56176349  0.14707616  0.29028689     0.27850
H1118       H  0.51548979  0.19542088  0.35983871     0.18440
H1119       H  0.97960780  0.06113074  0.36992800     0.18450
C1120       C  0.00562426  0.40106202  0.33834338    -0.07390
C1121       C  0.99178838  0.41449775  0.37278019    -0.18510
C1122       C  0.98632312  0.38974182  0.40365071     0.09810
C1123       C  0.99773335  0.35072092  0.40105159    -0.07310
C1124       C  0.51352351  0.33798239  0.36665953    -0.18550
C1125       C  0.51670173  0.36246119  0.33519731     0.09840
S1126       S  0.96111963  0.40952279  0.44350358    -0.33510
S1127       S  0.53250125  0.34225820  0.29139820    -0.33520
H1128       H  0.54507129  0.37627695  0.27427441     0.27850
H1129       H  0.93257275  0.38342971  0.44285372     0.27850
H1130       H  0.98215018  0.44406226  0.37480437     0.18440
H1131       H  0.52209339  0.30825773  0.36356257     0.18450
C1132       C  0.99435765  0.39839015  0.15812901    -0.07390
C1133       C  0.52719128  0.39161412  0.13697966    -0.18510
C1134       C  0.53017590  0.36257966  0.11115096     0.09810
C1135       C  0.49821926  0.34329473  0.10229675    -0.07310
C1136       C  0.96596750  0.34819038  0.12525187    -0.18550
C1137       C  0.96484489  0.37339684  0.15493076     0.09840
S1138       S  0.57573469  0.35037389  0.09217813    -0.33510
S1139       S  0.92466034  0.37342600  0.18672622    -0.33520
H1140       H  0.94522756  0.37375029  0.21904636     0.27850
H1141       H  0.57017449  0.31093684  0.09432126     0.27850
H1142       H  0.55093453  0.40830256  0.14144504     0.18440
H1143       H  0.94167258  0.33231193  0.12010513     0.18450
C1144       C  0.51582427  0.17319594  0.10694777    -0.07390
C1145       C  0.54178457  0.17632342  0.13460414    -0.18510
C1146       C  0.54408638  0.14938543  0.16460613     0.09810
C1147       C  0.51927625  0.11887056  0.16721295    -0.07310
C1148       C  0.49434267  0.11559987  0.13870499    -0.18550
C1149       C  0.49310005  0.14129795  0.10853100     0.09840
S1150       S  0.57865044  0.15696724  0.19802528    -0.33510
S1151       S  0.96438508  0.12917235  0.07124647    -0.33520
H1152       H  0.99473887  0.12562964  0.04553652     0.27850
H1153       H  0.56569151  0.13177824  0.22612694     0.27850
H1154       H  0.56002927  0.20015575  0.13310216     0.18440
H1155       H  0.97645161  0.09148668  0.13888128     0.18450
O1156       O  0.54262178  0.01529965  0.66944618    -0.81400
O1157       O  0.02259281  0.45106596  0.79622934    -0.81420
O1158       O  0.56815832  0.99976312  0.79477901    -0.81430
O1159       O  0.98929896  0.42607383  0.71709904    -0.81370
O1160       O  0.52766026  0.51017142  0.84169207    -0.81500
O1161       O  0.48655255  0.46567144  0.66777357    -0.81410
O1162       O  0.96880825  0.42844369  0.79190755    -0.81400
O1163       O  0.57086055  0.99075527  0.71778019    -0.81440
C1164       C  0.57155787  0.99980855  0.68363729     1.08290
C1165       C  0.99994745  0.42637029  0.80576883     1.08180
C1166       C  0.56112486  0.00305486  0.83008246     1.08310
C1167       C  0.99102401  0.43187372  0.68226014     1.08190
O1168       O  0.93344705  0.02885672  0.69516404    -0.81400
O1169       O  0.97967168  0.05607354  0.79801268    -0.81480
O1170       O  0.54677084  0.07080155  0.70834430    -0.81410
O1171       O  0.91756016  0.48884213  0.77650742    -0.81390
O1172       O  0.95413367  0.49286771  0.82362047    -0.81440
O1173       O  0.48807104  0.07255149  0.70367350    -0.81410
O1174       O  0.92331681  0.46929582  0.70190856    -0.81370
O1175       O  0.53448155  0.07384040  0.78423571    -0.81440
Co1176     Co  0.48787033  0.01977712  0.68789766     1.51530
Co1177     Co  0.00218552  0.50495878  0.79562101     1.51690
Co1178     Co  0.54809490  0.02994525  0.75007664     1.51570
Co1179     Co  0.95476316  0.45834183  0.74650044     1.51470
O1180       O  0.49355576  0.50312332  0.74286539    -1.43330
C1181       C  0.91383412  0.50165643  0.68856734     1.08220
C1182       C  0.50373351  0.07980475  0.80146032     1.08310
C1183       C  0.51811122  0.08795049  0.69653590     1.08240
C1184       C  0.92177198  0.49407200  0.81075965     1.08220
O1185       O  0.48148332  0.20914832  0.56247101    -0.81400
O1186       O  0.92795563  0.29245417  0.01663857    -0.81420
O1187       O  0.51114020  0.28952577  0.56224831    -0.81430
O1188       O  0.92277591  0.21121890  0.95384736    -0.81370
O1189       O  0.97985192  0.34058136  0.53976136    -0.81500
O1190       O  0.92637232  0.20575946  0.51429826    -0.81410
O1191       O  0.92420363  0.28829451  0.95600075    -0.81400
O1192       O  0.54065892  0.21673604  0.55983270    -0.81440
C1193       C  0.51249615  0.20240353  0.57637202     1.08290
C1194       C  0.90979367  0.29844193  0.98717809     1.08180
C1195       C  0.49629166  0.32360516  0.56651122     1.08310
C1196       C  0.90928388  0.19957469  0.98560722     1.08190
O1197       O  0.47666078  0.16592092  0.96144742    -0.81400
O1198       O  0.53812696  0.31241975  0.99720941    -0.81480
O1199       O  0.56208146  0.22156100  0.48250650    -0.81410
O1200       O  0.99989222  0.28724232  0.92569422    -0.81390
O1201       O  0.97712601  0.33037293  0.96342260    -0.81440
O1202       O  0.53218262  0.17237509  0.50756434    -0.81410
O1203       O  0.99969317  0.21040163  0.92438827    -0.81370
O1204       O  0.57987184  0.27802458  0.52915367    -0.81440
Co1205     Co  0.47889686  0.19117799  0.51149749     1.51530
Co1206     Co  0.98277885  0.29723879  0.00996620     1.51690
Co1207     Co  0.53473319  0.25616436  0.51775163     1.51570
Co1208     Co  0.96381719  0.24918057  0.94233997     1.51470
O1209       O  0.98788888  0.24441561  0.99233472    -1.43330
C1210       C  0.99093190  0.17633479  0.92977124     1.08220
C1211       C  0.57108414  0.30797658  0.51001723     1.08310
C1212       C  0.56070753  0.18609101  0.49073994     1.08240
C1213       C  0.99184612  0.32181439  0.93183418     1.08220
O1214       O  0.78968094  0.98820546  0.56661908    -0.81400
O1215       O  0.65565739  0.46532352  0.00436208    -0.81420
O1216       O  0.70821353  0.03822172  0.56965110    -0.81430
O1217       O  0.77678950  0.42742518  0.95986528    -0.81370
O1218       O  0.70477549  0.47769555  0.55718289    -0.81500
O1219       O  0.78778887  0.43330922  0.51809543    -0.81410
O1220       O  0.70652218  0.43209902  0.98995958    -0.81400
O1221       O  0.78424163  0.04966963  0.56846948    -0.81440
C1222       C  0.79619675  0.01817632  0.58263876     1.08290
C1223       C  0.67121599  0.43333907  0.99785994     1.08180
C1224       C  0.69764010  0.00458192  0.57902292     1.08310
C1225       C  0.79046186  0.41344193  0.98964607     1.08190
O1226       O  0.82243622  0.98244693  0.95947706    -0.81400
O1227       O  0.66731990  0.03688266  0.01480801    -0.81480
O1228       O  0.78119195  0.07800191  0.49230130    -0.81410
O1229       O  0.71441795  0.45544575  0.91838543    -0.81390
O1230       O  0.69078372  0.50484053  0.94909106    -0.81440
O1231       O  0.82703154  0.03874894  0.50995605    -0.81410
O1232       O  0.77367259  0.50221813  0.92732375    -0.81370
O1233       O  0.70856214  0.07501431  0.49265613    -0.81440
Co1234     Co  0.80405252  0.98613777  0.51349677     1.51530
Co1235     Co  0.70040385  0.49049227  0.00418481     1.51690
Co1236     Co  0.74549780  0.05714784  0.52883102     1.51570
Co1237     Co  0.73954892  0.47220430  0.96048026     1.51470
O1238       O  0.75266215  0.00580088  0.00301919    -1.43330
C1239       C  0.80833081  0.49438538  0.92898658     1.08220
C1240       C  0.67529282  0.06903323  0.50082010     1.08310
C1241       C  0.81522299  0.07085325  0.49588851     1.08240
C1242       C  0.68946889  0.48206266  0.92174986     1.08220
C1243       C  0.81406948  0.37741684  0.99021972    -0.07390
C1244       C  0.82866516  0.36405943  0.95609425    -0.18510
C1245       C  0.85799930  0.33678127  0.95413090     0.09810
C1246       C  0.87400625  0.32175163  0.98750708    -0.07310
C1247       C  0.85729642  0.33277435  0.52180947    -0.18550
C1248       C  0.82741016  0.35974935  0.52359755     0.09840
S1249       S  0.87482134  0.32538437  0.90752004    -0.33510
S1250       S  0.80851686  0.37063836  0.56961148    -0.33520
H1251       H  0.77168969  0.37582516  0.55878093     0.27850
H1252       H  0.87098522  0.28589213  0.91387321     0.27850
H1253       H  0.81845922  0.37640682  0.93033290     0.18440
H1254       H  0.86820089  0.32108564  0.54763828     0.18450
C1255       C  0.87925051  0.17159813  0.98880013    -0.07390
C1256       C  0.86415922  0.15875890  0.95630145    -0.18510
C1257       C  0.84248529  0.12636842  0.95729022     0.09810
C1258       C  0.83958234  0.10346369  0.49068906    -0.07310
C1259       C  0.85316870  0.11728004  0.52333164    -0.18550
C1260       C  0.87016933  0.15227778  0.52324161     0.09840
S1261       S  0.81874818  0.11776096  0.91525078    -0.33510
S1262       S  0.87619070  0.17193269  0.56831317    -0.33520
H1263       H  0.86824311  0.20988882  0.55621841     0.27850
H1264       H  0.80203826  0.08362564  0.92629740     0.27850
H1265       H  0.86918232  0.17405741  0.92990427     0.18440
H1266       H  0.84759565  0.10225228  0.54982597     0.18450
C1267       C  0.59744667  0.33918535  0.00340376    -0.07390
C1268       C  0.63602408  0.33112650  0.00139823    -0.18510
C1269       C  0.66142107  0.36067139  0.99915752     0.09810
C1270       C  0.64801414  0.39923068  0.99977817    -0.07310
C1271       C  0.60956067  0.40673706  0.50107177    -0.18550
C1272       C  0.58458198  0.37784941  0.50241384     0.09840
S1273       S  0.71005342  0.34718275  0.99625630    -0.33510
S1274       S  0.53659089  0.39341054  0.50523811    -0.33460
H1275       H  0.53213511  0.38159620  0.46880781     0.27850
H1276       H  0.71807903  0.37033467  0.02577450     0.27850
H1277       H  0.64645061  0.30170934  0.00202014     0.18440
H1278       H  0.59824943  0.43585432  0.50081729     0.18450
C1279       C  0.64738562  0.10044258  0.49716754    -0.07390
C1280       C  0.63202763  0.10893816  0.96243729    -0.18510
C1281       C  0.60572104  0.13924218  0.95809381     0.09810
C1282       C  0.59439837  0.16111323  0.48922519    -0.07310
C1283       C  0.61080429  0.15319593  0.52346612    -0.18550
C1284       C  0.63744332  0.12364520  0.52759279     0.09840
S1285       S  0.58717023  0.14775613  0.91270870    -0.33510
S1286       S  0.65722451  0.11647319  0.57261040    -0.33520
H1287       H  0.69393298  0.11207733  0.55797602     0.27850
H1288       H  0.57676845  0.18633658  0.91769278     0.27850
H1289       H  0.64041339  0.09178561  0.93870804     0.18440
H1290       H  0.60199274  0.16956310  0.54762428     0.18450
C1291       C  0.83306510  0.49668037  0.89493386    -0.07390
C1292       C  0.85752424  0.02658267  0.89094045    -0.18510
C1293       C  0.88312147  0.02893810  0.86056387     0.09810
C1294       C  0.88878214  0.49794748  0.83670554    -0.07310
C1295       C  0.86431696  0.46791542  0.84039418    -0.18550
C1296       C  0.83580272  0.46762210  0.86835012     0.09840
S1297       S  0.90411426  0.07385856  0.85116196    -0.33510
S1298       S  0.80555493  0.42815368  0.86978343    -0.33520
H1299       H  0.77392753  0.45019527  0.88027375     0.27850
H1300       H  0.90742822  0.06998792  0.81223767     0.27850
H1301       H  0.85657822  0.04842660  0.91141736     0.18440
H1302       H  0.86785506  0.44418463  0.82182241     0.18450
C1303       C  0.59236820  0.49565338  0.85540425    -0.07390
C1304       C  0.62420438  0.47505128  0.84149897    -0.18510
C1305       C  0.65667856  0.47097707  0.86149480     0.09810
C1306       C  0.65746973  0.48669163  0.89711063    -0.07310
C1307       C  0.62522973  0.00610146  0.91150784    -0.18550
C1308       C  0.59326901  0.01118932  0.89106260     0.09840
S1309       S  0.69648968  0.44738634  0.83902552    -0.33510
S1310       S  0.55595006  0.04026710  0.91102867    -0.33520
H1311       H  0.55777144  0.06657322  0.88056860     0.27850
H1312       H  0.72069854  0.47590497  0.84770882     0.27850
H1313       H  0.62437215  0.46293858  0.81410290     0.18440
H1314       H  0.62485127  0.01802276  0.93900469     0.18450
C1315       C  0.60760836  0.99827078  0.66176109    -0.07390
C1316       C  0.61753047  0.46640871  0.64067891    -0.18510
C1317       C  0.64961298  0.46540071  0.61701985     0.09810
C1318       C  0.67124876  0.99843645  0.61190731    -0.07310
C1319       C  0.66293226  0.02894370  0.63551521    -0.18550
C1320       C  0.63247921  0.02853770  0.66116171     0.09840
S1321       S  0.66080064  0.42086519  0.59475728    -0.33510
S1322       S  0.62767835  0.06743019  0.69247996    -0.33520
H1323       H  0.61621126  0.04478791  0.72364999     0.27850
H1324       H  0.69894376  0.42148666  0.60137789     0.27850
H1325       H  0.60047423  0.44183269  0.64297712     0.18440
H1326       H  0.68001670  0.05368919  0.63372782     0.18450
C1327       C  0.82337547  0.01526629  0.61286259    -0.07390
C1328       C  0.84839275  0.48354987  0.61180415    -0.18510
C1329       C  0.87836214  0.47991978  0.63474711     0.09810
C1330       C  0.88279934  0.00659215  0.66252333    -0.07310
C1331       C  0.85785771  0.03859553  0.66414267    -0.18550
C1332       C  0.82838594  0.04335172  0.63946375     0.09840
S1333       S  0.91335010  0.44448044  0.62207238    -0.33510
S1334       S  0.79819403  0.08528735  0.64360251    -0.33520
H1335       H  0.76570944  0.06662226  0.63604318     0.27850
H1336       H  0.94072279  0.47169593  0.61626307     0.27850
H1337       H  0.84656575  0.46245305  0.59064677     0.18440
H1338       H  0.86125235  0.05989091  0.68474963     0.18450
C1339       C  0.99398349  0.15080147  0.89739620    -0.07390
C1340       C  0.50719222  0.16609723  0.86249120    -0.18510
C1341       C  0.51015685  0.14421889  0.83053332     0.09810
C1342       C  0.49944542  0.10623739  0.83272124    -0.07310
C1343       C  0.98668542  0.09084600  0.86743462    -0.18550
C1344       C  0.98316001  0.11251876  0.89938532     0.09840
S1345       S  0.52687290  0.16624660  0.78760962    -0.33510
S1346       S  0.96474458  0.08912194  0.94132556    -0.33520
H1347       H  0.93359456  0.11451466  0.94402526     0.27850
H1348       H  0.56176222  0.14707957  0.79028743     0.27850
H1349       H  0.51548751  0.19542242  0.85983769     0.18440
H1350       H  0.97960582  0.06113223  0.86992753     0.18450
C1351       C  0.00562346  0.40106347  0.83834464    -0.07390
C1352       C  0.99178552  0.41449924  0.87278073    -0.18510
C1353       C  0.98631957  0.38974347  0.90365121     0.09810
C1354       C  0.99773099  0.35072287  0.90105277    -0.07310
C1355       C  0.51352337  0.33798448  0.86666156    -0.18550
C1356       C  0.51670249  0.36246305  0.83519936     0.09840
S1357       S  0.96111379  0.40952403  0.94350297    -0.33510
S1358       S  0.53250497  0.34226012  0.79140112    -0.33520
H1359       H  0.54507499  0.37627915  0.77427789     0.27850
H1360       H  0.93256798  0.38342981  0.94285220     0.27850
H1361       H  0.98214633  0.44406351  0.87480424     0.18440
H1362       H  0.52209439  0.30826003  0.86356520     0.18450
C1363       C  0.99435863  0.39838917  0.65812864    -0.07390
C1364       C  0.52719328  0.39161149  0.63698122    -0.18510
C1365       C  0.53017816  0.36257736  0.61115206     0.09810
C1366       C  0.49822135  0.34329352  0.60229621    -0.07310
C1367       C  0.96596831  0.34819096  0.62524929    -0.18550
C1368       C  0.96484475  0.37339773  0.65492797     0.09840
S1369       S  0.57573713  0.35037148  0.59217961    -0.33510
S1370       S  0.92465742  0.37342983  0.68671983    -0.33520
H1371       H  0.94522137  0.37375576  0.71904204     0.27850
H1372       H  0.57017655  0.31093450  0.59432162     0.27850
H1373       H  0.55093728  0.40829894  0.64144822     0.18440
H1374       H  0.94167296  0.33231381  0.62010092     0.18450
C1375       C  0.51582396  0.17319509  0.60694854    -0.07390
C1376       C  0.54178437  0.17632254  0.63460478    -0.18510
C1377       C  0.54408610  0.14938467  0.66460677     0.09810
C1378       C  0.51927585  0.11886996  0.66721360    -0.07310
C1379       C  0.49434199  0.11559939  0.63870588    -0.18550
C1380       C  0.49309939  0.14129740  0.60853191     0.09840
S1381       S  0.57865023  0.15696635  0.69802590    -0.33510
S1382       S  0.96438431  0.12917193  0.57124750    -0.33520
H1383       H  0.99473816  0.12562767  0.54553780     0.27850
H1384       H  0.56569085  0.13177789  0.72612786     0.27850
H1385       H  0.56002928  0.20015470  0.63310263     0.18440
H1386       H  0.97645101  0.09148627  0.63888223     0.18450
O1387       O  0.54262086  0.51530049  0.16944593    -0.81400
O1388       O  0.02259323  0.95106521  0.29622847    -0.81420
O1389       O  0.56815930  0.49976238  0.29477851    -0.81430
O1390       O  0.98929832  0.92607477  0.21709920    -0.81370
O1391       O  0.52766147  0.01016989  0.34169186    -0.81500
O1392       O  0.48655145  0.96567223  0.16777373    -0.81410
O1393       O  0.96880814  0.92844388  0.29190759    -0.81400
O1394       O  0.57085973  0.49075519  0.21777948    -0.81440
C1395       C  0.57155695  0.49980912  0.18363676     1.08290
C1396       C  0.99994773  0.92636966  0.30576812     1.08180
C1397       C  0.56112600  0.50305327  0.33008214     1.08310
C1398       C  0.99102302  0.93187463  0.18226035     1.08190
O1399       O  0.93344611  0.52885749  0.19516409    -0.81400
O1400       O  0.97967279  0.55607296  0.29801340    -0.81480
O1401       O  0.54677062  0.57080200  0.20834432    -0.81410
O1402       O  0.91756054  0.98884316  0.27650790    -0.81390
O1403       O  0.95413451  0.99286740  0.32362075    -0.81440
O1404       O  0.48807074  0.57255243  0.20367330    -0.81410
O1405       O  0.92331584  0.96929658  0.20190932    -0.81370
O1406       O  0.53448260  0.57383986  0.28423585    -0.81440
Co1407     Co  0.48786958  0.51977796  0.18789765     1.51530
Co1408     Co  0.00218627  0.00495822  0.29562094     1.51690
Co1409     Co  0.54809510  0.52994510  0.25007641     1.51570
Co1410     Co  0.95476290  0.95834266  0.24650076     1.51470
O1411       O  0.49355563  0.00312391  0.24286542    -1.43330
C1412       C  0.91383301  0.00165707  0.18856782     1.08220
C1413       C  0.50373480  0.57980403  0.30146088     1.08310
C1414       C  0.51811111  0.58795116  0.19653572     1.08240
C1415       C  0.92177272  0.99407243  0.31076014     1.08220
O1416       O  0.48148265  0.70914919  0.06247089    -0.81400
O1417       O  0.92795888  0.79245320  0.51663776    -0.81420
O1418       O  0.51113723  0.78952728  0.06224875    -0.81430
O1419       O  0.92277808  0.71121751  0.45384667    -0.81370
O1420       O  0.97984816  0.84058288  0.03976244    -0.81500
O1421       O  0.92637119  0.70576005  0.01429881    -0.81410
O1422       O  0.92420680  0.78829305  0.45599994    -0.81400
O1423       O  0.54065797  0.71673824  0.05983229    -0.81440
C1424       C  0.51249565  0.70240475  0.07637162     1.08290
C1425       C  0.90979709  0.79844101  0.48717719     1.08180
C1426       C  0.49628796  0.82360626  0.06651226     1.08310
C1427       C  0.90928538  0.69957376  0.48560643     1.08190
O1428       O  0.47666218  0.66591922  0.46144791    -0.81400
O1429       O  0.53813070  0.81241636  0.49720919    -0.81480
O1430       O  0.56207980  0.72156495  0.98250592    -0.81410
O1431       O  0.99989544  0.78724029  0.42569357    -0.81390
O1432       O  0.97712968  0.83037105  0.46342192    -0.81440
O1433       O  0.53218222  0.67237787  0.00756309    -0.81410
O1434       O  0.99969594  0.71039948  0.42438904    -0.81370
O1435       O  0.57986901  0.77802850  0.02915354    -0.81440
Co1436     Co  0.47889601  0.69117948  0.01149715     1.51530
Co1437     Co  0.98278209  0.79723693  0.50996563     1.51690
Co1438     Co  0.53473086  0.75616711  0.01775163     1.51570
Co1439     Co  0.96382000  0.74917876  0.44233961     1.51470
O1440       O  0.98789114  0.74441369  0.49233461    -1.43330
C1441       C  0.99093407  0.67633284  0.42977197     1.08220
C1442       C  0.57108049  0.80798073  0.01001783     1.08310
C1443       C  0.56070679  0.68609480  0.99073892     1.08240
C1444       C  0.99184937  0.82181243  0.43183335     1.08220
O1445       O  0.78967893  0.48820714  0.06661935    -0.81400
O1446       O  0.65566013  0.96531886  0.50436488    -0.81420
O1447       O  0.70821190  0.53822438  0.06965049    -0.81430
O1448       O  0.77679200  0.92742354  0.45986505    -0.81370
O1449       O  0.70477228  0.97769853  0.05718079    -0.81500
O1450       O  0.78778612  0.93331072  0.01809558    -0.81410
O1451       O  0.70652512  0.93209551  0.48996020    -0.81400
O1452       O  0.78424035  0.54967129  0.06846971    -0.81440
C1453       C  0.79619499  0.51817789  0.08263919     1.08290
C1454       C  0.67121916  0.93333484  0.49786171     1.08180
C1455       C  0.69763789  0.50458462  0.07902169     1.08310
C1456       C  0.79046481  0.91344050  0.48964569     1.08190
O1457       O  0.82243756  0.48244620  0.45947687    -0.81400
O1458       O  0.66732120  0.53687832  0.51480972    -0.81480
O1459       O  0.78119147  0.57800342  0.99230147    -0.81410
O1460       O  0.71441938  0.95544259  0.41838593    -0.81390
O1461       O  0.69078389  0.00483614  0.44909259    -0.81440
O1462       O  0.82703047  0.53874972  0.00995638    -0.81410
O1463       O  0.77367324  0.00221641  0.42732387    -0.81370
O1464       O  0.70856187  0.57501776  0.99265570    -0.81440
Co1465     Co  0.80405069  0.48613905  0.01349702     1.51530
Co1466     Co  0.70040580  0.99048855  0.50418634     1.51690
Co1467     Co  0.74549684  0.55715012  0.02883090     1.51570
Co1468     Co  0.73955051  0.97220176  0.46048056     1.51470
O1469       O  0.75266360  0.50579856  0.50301948    -1.43330
C1470       C  0.80833162  0.99438444  0.42898649     1.08220
C1471       C  0.67529231  0.56903741  0.00081914     1.08310
C1472       C  0.81522237  0.57085415  0.99588877     1.08240
C1473       C  0.68946955  0.98205868  0.42175095     1.08220
C1474       C  0.81407310  0.87741596  0.49021898    -0.07390
C1475       C  0.82866966  0.86405977  0.45609336    -0.18510
C1476       C  0.85800410  0.83678203  0.45412982     0.09810
C1477       C  0.87401011  0.82175120  0.48750601    -0.07310
C1478       C  0.85729266  0.83277533  0.02181027    -0.18550
C1479       C  0.82740629  0.85975031  0.02359813     0.09840
S1480       S  0.87482807  0.82538767  0.40751889    -0.33510
S1481       S  0.80851235  0.87063929  0.06961183    -0.33520
H1482       H  0.77168536  0.87582639  0.05878066     0.27850
H1483       H  0.87099025  0.78589533  0.41386935     0.27850
H1484       H  0.81846432  0.87640798  0.43033209     0.18440
H1485       H  0.86819726  0.82108699  0.04763915     0.18450
C1486       C  0.87925173  0.67159733  0.48879923    -0.07390
C1487       C  0.86416070  0.65875770  0.45630055    -0.18510
C1488       C  0.84248621  0.62636754  0.45728956     0.09810
C1489       C  0.83958200  0.60346417  0.99068938    -0.07310
C1490       C  0.85316862  0.61728010  0.02333200    -0.18550
C1491       C  0.87016881  0.65227801  0.02324229     0.09840
S1492       S  0.81874925  0.61775997  0.41525007    -0.33510
S1493       S  0.87619061  0.67193226  0.06831406    -0.33520
H1494       H  0.86824260  0.70988852  0.05621995     0.27850
H1495       H  0.80203852  0.58362520  0.42629711     0.27850
H1496       H  0.86918435  0.67405573  0.42990321     0.18440
H1497       H  0.84759598  0.60225191  0.04982620     0.18450
C1498       C  0.59745044  0.83918105  0.50340480    -0.07390
C1499       C  0.63602786  0.83112207  0.50140013    -0.18510
C1500       C  0.66142486  0.86066699  0.49915964     0.09810
C1501       C  0.64801779  0.89922625  0.49977970    -0.07310
C1502       C  0.60955676  0.90674174  0.00107506    -0.18550
C1503       C  0.58457788  0.87785409  0.00241749     0.09840
S1504       S  0.71005727  0.84717853  0.49625961    -0.33510
S1505       S  0.53658676  0.89341489  0.00524561    -0.33460
H1506       H  0.53212764  0.88160011  0.96881607     0.27850
H1507       H  0.71808231  0.87033213  0.52577668     0.27850
H1508       H  0.64645435  0.80170490  0.50202250     0.18440
H1509       H  0.59824559  0.93585900  0.00082322     0.18450
C1510       C  0.64738572  0.60044739  0.99716631    -0.07390
C1511       C  0.63202836  0.60893410  0.46243846    -0.18510
C1512       C  0.60572191  0.63923825  0.45809505     0.09810
C1513       C  0.59439829  0.66111794  0.98922377    -0.07310
C1514       C  0.61080539  0.65320182  0.02346430    -0.18550
C1515       C  0.63744453  0.62365113  0.02759105     0.09840
S1516       S  0.58717218  0.64775321  0.41270959    -0.33510
S1517       S  0.65722674  0.61648015  0.07260832    -0.33520
H1518       H  0.69393477  0.61208152  0.05797341     0.27850
H1519       H  0.57677059  0.68633362  0.41769413     0.27850
H1520       H  0.64041479  0.59178221  0.43870892     0.18440
H1521       H  0.60199447  0.66956965  0.04762220     0.18450
C1522       C  0.83306566  0.99668006  0.39493378    -0.07390
C1523       C  0.85752506  0.52658221  0.39094119    -0.18510
C1524       C  0.88312251  0.52893793  0.36056488     0.09810
C1525       C  0.88878305  0.99794769  0.33670608    -0.07310
C1526       C  0.86431771  0.96791575  0.34039401    -0.18550
C1527       C  0.83580334  0.96762213  0.36834972     0.09840
S1528       S  0.90411579  0.57385829  0.35116392    -0.33510
S1529       S  0.80555571  0.92815360  0.36978250    -0.33520
H1530       H  0.77392827  0.95019493  0.38027309     0.27850
H1531       H  0.90742982  0.56998839  0.31223954     0.27850
H1532       H  0.85657910  0.54842572  0.41141855     0.18440
H1533       H  0.86785584  0.94418525  0.32182189     0.18450
C1534       C  0.59236935  0.99565108  0.35540399    -0.07390
C1535       C  0.62420578  0.97504948  0.34149854    -0.18510
C1536       C  0.65667962  0.97097428  0.36149499     0.09810
C1537       C  0.65747036  0.98668762  0.39711147    -0.07310
C1538       C  0.62522993  0.50609658  0.41150901    -0.18550
C1539       C  0.59326954  0.51118526  0.39106329     0.09840
S1540       S  0.69649093  0.94738391  0.33902575    -0.33510
S1541       S  0.55595023  0.54026206  0.41103004    -0.33520
H1542       H  0.55777226  0.56656967  0.38057123     0.27850
H1543       H  0.72069933  0.97590292  0.34770909     0.27850
H1544       H  0.62437397  0.96293788  0.31410195     0.18440
H1545       H  0.62485100  0.51801688  0.43900634     0.18450
C1546       C  0.60760730  0.49827186  0.16176057    -0.07390
C1547       C  0.61752836  0.96641029  0.14067691    -0.18510
C1548       C  0.64961082  0.96540280  0.11701775     0.09810
C1549       C  0.67124694  0.49843872  0.11190618    -0.07310
C1550       C  0.66293063  0.52894557  0.13551458    -0.18550
C1551       C  0.63247802  0.52853886  0.16116155     0.09840
S1552       S  0.66079819  0.92086762  0.09475443    -0.33510
S1553       S  0.62767782  0.56743032  0.19248108    -0.33520
H1554       H  0.61621074  0.54478720  0.22365052     0.27850
H1555       H  0.69894138  0.92148884  0.10137483     0.27850
H1556       H  0.60047247  0.94183554  0.14297420     0.18440
H1557       H  0.68001486  0.55369120  0.13372730     0.18450
C1558       C  0.82337301  0.51526745  0.11286393    -0.07390
C1559       C  0.84838713  0.98354817  0.11180872    -0.18510
C1560       C  0.87835683  0.97991764  0.13475131     0.09810
C1561       C  0.88279743  0.50659264  0.16252446    -0.07310
C1562       C  0.85785870  0.53859854  0.16414089    -0.18550
C1563       C  0.82838675  0.54335504  0.13946212     0.09840
S1564       S  0.91334107  0.94447356  0.12207938    -0.33510
S1565       S  0.79819894  0.58529405  0.14359721    -0.33520
H1566       H  0.76571212  0.56663097  0.13604165     0.27850
H1567       H  0.94071671  0.97168550  0.11626713     0.27850
H1568       H  0.84655774  0.96244917  0.09065383     0.18440
H1569       H  0.86125585  0.55989585  0.18474533     0.18450
C1570       C  0.99398567  0.65079969  0.39739700    -0.07390
C1571       C  0.50719438  0.66609568  0.36249213    -0.18510
C1572       C  0.51015883  0.64421762  0.33053417     0.09810
C1573       C  0.49944721  0.60623623  0.33272196    -0.07310
C1574       C  0.98668746  0.59084451  0.36743526    -0.18550
C1575       C  0.98316230  0.61251698  0.39938609     0.09840
S1576       S  0.52687496  0.66624556  0.28761059    -0.33510
S1577       S  0.96474739  0.58911987  0.44132641    -0.33520
H1578       H  0.93359681  0.61451188  0.44402602     0.27850
H1579       H  0.56176342  0.64707645  0.29028701     0.27850
H1580       H  0.51548971  0.69542087  0.35983872     0.18440
H1581       H  0.97960783  0.56113074  0.36992800     0.18450
C1582       C  0.00562424  0.90106202  0.33834339    -0.07390
C1583       C  0.99178842  0.91449776  0.37278021    -0.18510
C1584       C  0.98632318  0.88974184  0.40365074     0.09810
C1585       C  0.99773336  0.85072093  0.40105161    -0.07310
C1586       C  0.51352347  0.83798242  0.36665953    -0.18550
C1587       C  0.51670167  0.86246123  0.33519732     0.09840
S1588       S  0.96111974  0.90952284  0.44350363    -0.33510
S1589       S  0.53250118  0.84225823  0.29139820    -0.33520
H1590       H  0.54507125  0.87627698  0.27427442     0.27850
H1591       H  0.93257282  0.88342980  0.44285379     0.27850
H1592       H  0.98215025  0.94406229  0.37480439     0.18440
H1593       H  0.52209334  0.80825776  0.36356257     0.18450
C1594       C  0.99435759  0.89839011  0.15812905    -0.07390
C1595       C  0.52719187  0.89161115  0.13698229    -0.18510
C1596       C  0.53017577  0.86257668  0.11115339     0.09810
C1597       C  0.49821824  0.84329423  0.10229729    -0.07310
C1598       C  0.96596736  0.84819043  0.12525184    -0.18550
C1599       C  0.96484476  0.87339689  0.15493074     0.09840
S1600       S  0.57573462  0.85036857  0.09218191    -0.33510
S1601       S  0.92466014  0.87342618  0.18672610    -0.33520
H1602       H  0.94522728  0.87375052  0.21904630     0.27850
H1603       H  0.57017251  0.81093188  0.09432483     0.27850
H1604       H  0.55093542  0.90829685  0.14144941     0.18440
H1605       H  0.94167240  0.83231207  0.12010506     0.18450
C1606       C  0.51582407  0.67319590  0.10694791    -0.07390
C1607       C  0.54178442  0.67632338  0.13460424    -0.18510
C1608       C  0.54408620  0.64938543  0.16460627     0.09810
C1609       C  0.51927604  0.61887059  0.16721314    -0.07310
C1610       C  0.49434237  0.61559994  0.13870525    -0.18550
C1611       C  0.49309975  0.64129799  0.10853124     0.09840
S1612       S  0.57865025  0.65696731  0.19802542    -0.33510
S1613       S  0.96438487  0.62917240  0.07124662    -0.33520
H1614       H  0.99473855  0.62562995  0.04553651     0.27850
H1615       H  0.56569142  0.63177823  0.22612705     0.27850
H1616       H  0.56002916  0.70015567  0.13310221     0.18440
H1617       H  0.97645151  0.59148675  0.13888139     0.18450
O1618       O  0.54262185  0.51529969  0.66944618    -0.81400
O1619       O  0.02259281  0.95106596  0.79622935    -0.81420
O1620       O  0.56815836  0.49976313  0.79477902    -0.81430
O1621       O  0.98929901  0.92607383  0.71709903    -0.81370
O1622       O  0.52766027  0.01017146  0.84169209    -0.81500
O1623       O  0.48655250  0.96567137  0.66777363    -0.81410
O1624       O  0.96880826  0.92844369  0.79190753    -0.81400
O1625       O  0.57086057  0.49075527  0.71778020    -0.81440
C1626       C  0.57155793  0.49980856  0.68363730     1.08290
C1627       C  0.99994745  0.92637029  0.80576884     1.08180
C1628       C  0.56112486  0.50305483  0.83008247     1.08310
C1629       C  0.99102405  0.93187371  0.68226014     1.08190
O1630       O  0.93344702  0.52885673  0.69516406    -0.81400
O1631       O  0.97967165  0.55607353  0.79801269    -0.81480
O1632       O  0.54677090  0.57080158  0.70834430    -0.81410
O1633       O  0.91756018  0.98884214  0.77650737    -0.81390
O1634       O  0.95413367  0.99286773  0.82362044    -0.81440
O1635       O  0.48807109  0.57255152  0.70367349    -0.81410
O1636       O  0.92331685  0.96929582  0.70190852    -0.81370
O1637       O  0.53448161  0.57384043  0.78423569    -0.81440
Co1638     Co  0.48787039  0.51977717  0.68789760     1.51530
Co1639     Co  0.00218553  0.00495879  0.79562100     1.51690
Co1640     Co  0.54809494  0.52994526  0.75007664     1.51570
Co1641     Co  0.95476319  0.95834183  0.74650041     1.51470
O1642       O  0.49355573  0.00312326  0.74286544    -1.43330
C1643       C  0.91383416  0.00165643  0.68856731     1.08220
C1644       C  0.50373358  0.57980480  0.80146030     1.08310
C1645       C  0.51811128  0.58795052  0.69653590     1.08240
C1646       C  0.92177199  0.99407202  0.81075961     1.08220
O1647       O  0.48148331  0.70914834  0.56247103    -0.81400
O1648       O  0.92795551  0.79245418  0.01663853    -0.81420
O1649       O  0.51114016  0.78952577  0.56224832    -0.81430
O1650       O  0.92277589  0.71121888  0.95384733    -0.81370
O1651       O  0.97985188  0.84058134  0.53976139    -0.81500
O1652       O  0.92637231  0.70575947  0.51429824    -0.81410
O1653       O  0.92420359  0.78829447  0.95600070    -0.81400
O1654       O  0.54065891  0.71673606  0.55983271    -0.81440
C1655       C  0.51249614  0.70240356  0.57637204     1.08290
C1656       C  0.90979361  0.79844193  0.98717802     1.08180
C1657       C  0.49629157  0.82360513  0.56651126     1.08310
C1658       C  0.90928384  0.69957469  0.98560718     1.08190
O1659       O  0.47666093  0.66592095  0.96144739    -0.81400
O1660       O  0.53812680  0.81242006  0.99721032    -0.81480
O1661       O  0.56208146  0.72156101  0.48250653    -0.81410
O1662       O  0.99989220  0.78724233  0.92569423    -0.81390
O1663       O  0.97712594  0.83037293  0.96342260    -0.81440
O1664       O  0.53218263  0.67237511  0.50756437    -0.81410
O1665       O  0.99969317  0.71040162  0.92438828    -0.81370
O1666       O  0.57987182  0.77802459  0.52915372    -0.81440
Co1667     Co  0.47889686  0.69117800  0.51149752     1.51530
Co1668     Co  0.98277874  0.79723879  0.00996621     1.51690
Co1669     Co  0.53473318  0.75616437  0.51775164     1.51570
Co1670     Co  0.96381716  0.74918055  0.94233996     1.51470
O1671       O  0.98788881  0.74441561  0.99233472    -1.43330
C1672       C  0.99093188  0.67633478  0.92977124     1.08220
C1673       C  0.57108410  0.80797662  0.51001732     1.08310
C1674       C  0.56070753  0.68609102  0.49073997     1.08240
C1675       C  0.99184609  0.82181439  0.93183419     1.08220
O1676       O  0.78968093  0.48820549  0.56661908    -0.81400
O1677       O  0.65565739  0.96532383  0.00436143    -0.81420
O1678       O  0.70821356  0.53822174  0.56965110    -0.81430
O1679       O  0.77678945  0.92742518  0.95986516    -0.81370
O1680       O  0.70477545  0.97769554  0.55718285    -0.81500
O1681       O  0.78778885  0.93330920  0.51809542    -0.81410
O1682       O  0.70652214  0.93209907  0.98995960    -0.81400
O1683       O  0.78424164  0.54966967  0.56846947    -0.81440
C1684       C  0.79619675  0.51817636  0.58263876     1.08290
C1685       C  0.67121594  0.93333923  0.99785985     1.08180
C1686       C  0.69764015  0.50458193  0.57902294     1.08310
C1687       C  0.79046181  0.91344189  0.98964592     1.08190
O1688       O  0.82243622  0.48244693  0.95947715    -0.81400
O1689       O  0.66731988  0.53688256  0.01480827    -0.81480
O1690       O  0.78119195  0.57800192  0.49230127    -0.81410
O1691       O  0.71441792  0.95544576  0.91838536    -0.81390
O1692       O  0.69078400  0.00484084  0.94909071    -0.81440
O1693       O  0.82703154  0.53874897  0.50995605    -0.81410
O1694       O  0.77367258  0.00221809  0.92732366    -0.81370
O1695       O  0.70856213  0.57501430  0.49265613    -0.81440
Co1696     Co  0.80405253  0.48613779  0.51349678     1.51530
Co1697     Co  0.70040388  0.99049243  0.00418444     1.51690
Co1698     Co  0.74549780  0.55714785  0.52883101     1.51570
Co1699     Co  0.73954891  0.97220430  0.96048020     1.51470
O1700       O  0.75266210  0.50580085  0.00301928    -1.43330
C1701       C  0.80833080  0.99438536  0.92898649     1.08220
C1702       C  0.67529282  0.56903321  0.50082011     1.08310
C1703       C  0.81522299  0.57085327  0.49588850     1.08240
C1704       C  0.68946901  0.98206284  0.92174964     1.08220
C1705       C  0.81406938  0.87741679  0.99021949    -0.07390
C1706       C  0.82866541  0.86405973  0.95609401    -0.18510
C1707       C  0.85799959  0.83678163  0.95413068     0.09810
C1708       C  0.87400622  0.82175167  0.98750691    -0.07310
C1709       C  0.85729637  0.83277431  0.52180943    -0.18550
C1710       C  0.82741010  0.85974930  0.52359751     0.09840
S1711       S  0.87482216  0.82538531  0.90751983    -0.33510
S1712       S  0.80851673  0.87063825  0.56961143    -0.33520
H1713       H  0.77168959  0.87582510  0.55878083     0.27850
H1714       H  0.87098568  0.78589305  0.91387239     0.27850
H1715       H  0.81845974  0.87640740  0.93033267     0.18440
H1716       H  0.86820081  0.82108556  0.54763824     0.18450
C1717       C  0.87925044  0.67159816  0.98880008    -0.07390
C1718       C  0.86415917  0.65875891  0.95630139    -0.18510
C1719       C  0.84248524  0.62636844  0.95729016     0.09810
C1720       C  0.83958233  0.60346372  0.49068905    -0.07310
C1721       C  0.85316867  0.61728009  0.52333162    -0.18550
C1722       C  0.87016929  0.65227783  0.52324160     0.09840
S1723       S  0.81874815  0.61776096  0.91525071    -0.33510
S1724       S  0.87619063  0.67193277  0.56831315    -0.33520
H1725       H  0.86824307  0.70988890  0.55621835     0.27850
H1726       H  0.80203821  0.58362566  0.92629734     0.27850
H1727       H  0.86918230  0.67405740  0.92990421     0.18440
H1728       H  0.84759560  0.60225234  0.54982597     0.18450
C1729       C  0.59744640  0.83918565  0.00340531    -0.07390
C1730       C  0.63602375  0.83112671  0.00139753    -0.18510
C1731       C  0.66142080  0.86067155  0.99915628     0.09810
C1732       C  0.64801403  0.89923084  0.99977898    -0.07310
C1733       C  0.60956062  0.90673709  0.50107212    -0.18550
C1734       C  0.58458192  0.87784945  0.50241421     0.09840
S1735       S  0.71005304  0.84718280  0.99625115    -0.33510
S1736       S  0.53659085  0.89341058  0.50523870    -0.33460
H1737       H  0.53213488  0.88159629  0.46880842     0.27850
H1738       H  0.71808075  0.87033270  0.02577017     0.27850
H1739       H  0.64645019  0.80170951  0.00201768     0.18440
H1740       H  0.59824939  0.93585435  0.50081782     0.18450
C1741       C  0.64738561  0.60044256  0.49716757    -0.07390
C1742       C  0.63202759  0.60893807  0.96243746    -0.18510
C1743       C  0.60572108  0.63924216  0.95809396     0.09810
C1744       C  0.59439837  0.66111323  0.48922522    -0.07310
C1745       C  0.61080429  0.65319592  0.52346615    -0.18550
C1746       C  0.63744331  0.62364518  0.52759282     0.09840
S1747       S  0.58717030  0.64775617  0.91270884    -0.33510
S1748       S  0.65722450  0.61647317  0.57261043    -0.33520
H1749       H  0.69393298  0.61207733  0.55797603     0.27850
H1750       H  0.57676866  0.68633665  0.91769292     0.27850
H1751       H  0.64041330  0.59178549  0.93870821     0.18440
H1752       H  0.60199274  0.66956309  0.54762431     0.18450
C1753       C  0.83306507  0.99668038  0.89493376    -0.07390
C1754       C  0.85752424  0.52658268  0.89094050    -0.18510
C1755       C  0.88312146  0.52893809  0.86056391     0.09810
C1756       C  0.88878213  0.99794751  0.83670547    -0.07310
C1757       C  0.86431691  0.96791548  0.84039405    -0.18550
C1758       C  0.83580266  0.96762216  0.86834997     0.09840
S1759       S  0.90411423  0.57385856  0.85116196    -0.33510
S1760       S  0.80555480  0.92815380  0.86978317    -0.33520
H1761       H  0.77392744  0.95019538  0.88027364     0.27850
H1762       H  0.90742818  0.56998789  0.81223767     0.27850
H1763       H  0.85657820  0.54842664  0.91141739     0.18440
H1764       H  0.86785499  0.94418472  0.82182224     0.18450
C1765       C  0.59236823  0.99565345  0.85540420    -0.07390
C1766       C  0.62420440  0.97505135  0.84149888    -0.18510
C1767       C  0.65667861  0.97097719  0.86149465     0.09810
C1768       C  0.65746983  0.98669181  0.89711045    -0.07310
C1769       C  0.62522961  0.50610129  0.91150797    -0.18550
C1770       C  0.59326894  0.51118921  0.89106267     0.09840
S1771       S  0.69648973  0.94738649  0.83902534    -0.33510
S1772       S  0.55595000  0.54026704  0.91102869    -0.33520
H1773       H  0.55777144  0.56657315  0.88056862     0.27850
H1774       H  0.72069860  0.97590509  0.84770868     0.27850
H1775       H  0.62437213  0.96293863  0.81410283     0.18440
H1776       H  0.62485111  0.51802257  0.93900485     0.18450
C1777       C  0.60760843  0.49827079  0.66176113    -0.07390
C1778       C  0.61753032  0.96640873  0.64067879    -0.18510
C1779       C  0.64961286  0.96540072  0.61701976     0.09810
C1780       C  0.67124882  0.49843647  0.61190735    -0.07310
C1781       C  0.66293230  0.52894374  0.63551522    -0.18550
C1782       C  0.63247925  0.52853774  0.66116172     0.09840
S1783       S  0.66080050  0.92086520  0.59475717    -0.33510
S1784       S  0.62767837  0.56743025  0.69247994    -0.33520
H1785       H  0.61621128  0.54478798  0.72364998     0.27850
H1786       H  0.69894362  0.92148664  0.60137781     0.27850
H1787       H  0.60047408  0.94183283  0.64297691     0.18440
H1788       H  0.68001672  0.55368925  0.63372780     0.18450
C1789       C  0.82337544  0.51526632  0.61286261    -0.07390
C1790       C  0.84839287  0.98354992  0.61180403    -0.18510
C1791       C  0.87836227  0.97991985  0.63474698     0.09810
C1792       C  0.88279930  0.50659216  0.66252337    -0.07310
C1793       C  0.85785775  0.53859560  0.66414263    -0.18550
C1794       C  0.82838598  0.54335180  0.63946371     0.09840
S1795       S  0.91335034  0.94448066  0.62207215    -0.33510
S1796       S  0.79819416  0.58528750  0.64360238    -0.33520
H1797       H  0.76570952  0.56662247  0.63604312     0.27850
H1798       H  0.94072295  0.97169625  0.61626297     0.27850
H1799       H  0.84656593  0.96245316  0.59064659     0.18440
H1800       H  0.86125244  0.55989102  0.68474953     0.18450
C1801       C  0.99398346  0.65080147  0.89739620    -0.07390
C1802       C  0.50719240  0.66609726  0.86249119    -0.18510
C1803       C  0.51015699  0.64421892  0.83053330     0.09810
C1804       C  0.49944549  0.60623745  0.83272121    -0.07310
C1805       C  0.98668540  0.59084599  0.86743463    -0.18550
C1806       C  0.98316000  0.61251875  0.89938533     0.09840
S1807       S  0.52687307  0.66624662  0.78760961    -0.33510
S1808       S  0.96474459  0.58912192  0.94132558    -0.33520
H1809       H  0.93359456  0.61451462  0.94402528     0.27850
H1810       H  0.56176237  0.64707955  0.79028742     0.27850
H1811       H  0.51548775  0.69542244  0.85983769     0.18440
H1812       H  0.97960581  0.56113222  0.86992755     0.18450
C1813       C  0.00562346  0.90106347  0.83834464    -0.07390
C1814       C  0.99178556  0.91449926  0.87278074    -0.18510
C1815       C  0.98631960  0.88974350  0.90365123     0.09810
C1816       C  0.99773097  0.85072288  0.90105278    -0.07310
C1817       C  0.51352273  0.83798420  0.86666148    -0.18550
C1818       C  0.51670167  0.86246268  0.83519920     0.09840
S1819       S  0.96111390  0.90952410  0.94350301    -0.33510
S1820       S  0.53250272  0.84225941  0.79140068    -0.33520
H1821       H  0.54507322  0.87627812  0.77427717     0.27850
H1822       H  0.93256804  0.88342994  0.94285229     0.27850
H1823       H  0.98214640  0.94406353  0.87480425     0.18440
H1824       H  0.52209301  0.80825959  0.86356493     0.18450
C1825       C  0.99435864  0.89838915  0.65812865    -0.07390
C1826       C  0.52719332  0.89161111  0.63698156    -0.18510
C1827       C  0.53017812  0.86257702  0.61115235     0.09810
C1828       C  0.49822120  0.84329348  0.60229626    -0.07310
C1829       C  0.96596824  0.84819104  0.62524924    -0.18550
C1830       C  0.96484469  0.87339782  0.65492791     0.09840
S1831       S  0.57573708  0.85037090  0.59218001    -0.33510
S1832       S  0.92465729  0.87343004  0.68671969    -0.33520
H1833       H  0.94522115  0.87375601  0.71904195     0.27850
H1834       H  0.57017631  0.81093396  0.59432200     0.27850
H1835       H  0.55093736  0.90829824  0.64144879     0.18440
H1836       H  0.94167286  0.83231397  0.62010082     0.18450
C1837       C  0.51582396  0.67319513  0.60694856    -0.07390
C1838       C  0.54178439  0.67632258  0.63460478    -0.18510
C1839       C  0.54408614  0.64938470  0.66460677     0.09810
C1840       C  0.51927590  0.61886998  0.66721359    -0.07310
C1841       C  0.49434203  0.61559942  0.63870589    -0.18550
C1842       C  0.49309940  0.64129743  0.60853193     0.09840
S1843       S  0.57865028  0.65696639  0.69802588    -0.33510
S1844       S  0.96438421  0.62917196  0.57124756    -0.33520
H1845       H  0.99473801  0.62562783  0.54553779     0.27850
H1846       H  0.56569095  0.63177789  0.72612783     0.27850
H1847       H  0.56002929  0.70015474  0.63310263     0.18440
H1848       H  0.97645093  0.59148631  0.63888228     0.18450
loop_ 
_geom_bond_atom_site_label_1 
_geom_bond_atom_site_label_2 
_geom_bond_distance 
_geom_bond_site_symmetry_2 
_ccdc_geom_bond_type 
O1            C9   1.275   1_545  A
O1          Co21   2.055   1_455  S
O2           C10   1.244       .  A
O2          Co22   2.000       .  S
O3           C11   1.288   1_565  A
O3          Co23   2.034   1_565  S
O4           C12   1.258       .  A
O4          Co24   1.947       .  S
O5          C473   1.276       .  A
O5         Co946   1.944       .  S
O6          C936   1.285       .  A
O6         Co483   2.057       .  S
O7           C10   1.247       .  A
O7          Co24   1.980       .  S
O8            C9   1.254       .  A
O8          Co23   1.959   1_565  S
C9          C160   1.488       .  S
C10         C196   1.459       .  S
C11         O467   1.276       .  A
C11         C610   1.488   1_545  S
C12         O930   1.285       .  A
C12         C208   1.481       .  S
O13         C488   1.247       .  A
O13        Co945   1.982       .  S
O14         C951   1.240       .  A
O14        Co484   1.941       .  S
O15          C28   1.257       .  A
O15         Co23   2.037       .  S
O16          C29   1.265       .  A
O16         Co24   1.983       .  S
O17          C29   1.273       .  A
O17         Co22   2.016       .  S
O18          C28   1.243   1_655  A
O18         Co21   1.955       .  S
O19          C26   1.257       .  A
O19         Co24   2.019       .  S
O20          C27   1.258       .  A
O20         Co23   2.031       .  S
Co21        O468   2.057   1_545  S
Co21        O937   1.982       .  S
Co21        O487   2.053       .  S
Co22        O929   1.944       .  S
Co22        O476   1.941       .  S
Co22        O949   1.935       .  S
Co23        O487   2.245   1_455  S
Co24        O949   2.144       .  S
O25        Co483   2.053       .  S
O25        Co946   1.935   1_655  S
O25        Co485   2.245   1_655  S
O25        Co948   2.144       .  S
C26         O475   1.247       .  A
C26         C637   1.491       .  S
C27         O938   1.240   1_455  A
C27         C187   1.478   1_455  S
C28         C223   1.485       .  S
C29         C139   1.481       .  S
O30          C38   1.255   1_655  A
O30         Co50   1.962       .  S
O31          C39   1.275       .  A
O31         Co51   1.994       .  S
O32          C40   1.301   1_455  A
O32         Co52   2.136       .  S
O33          C41   1.278       .  A
O33         Co53   2.051       .  S
O34         C964   1.269       .  A
O34        Co282   1.885       .  S
O35         C272   1.253   1_554  A
O35        Co974   1.940       .  S
O36          C39   1.267       .  A
O36         Co53   1.996       .  S
O37          C38   1.266       .  A
O37         Co52   2.024       .  S
C38         C220   1.480       .  S
C39          C91   1.499       .  S
C40         O958   1.269       .  A
C40         C211   1.484       .  S
C41         O266   1.253       .  A
C41         C100   1.490       .  S
O42         C979   1.274       .  A
O42        Co281   2.035       .  S
O43         C287   1.295       .  A
O43        Co975   2.113   1_455  S
O44          C57   1.271       .  A
O44         Co52   1.984   1_556  S
O45          C58   1.260       .  A
O45         Co53   1.962       .  S
O46          C58   1.269       .  A
O46         Co51   2.014       .  S
O47          C57   1.272   1_554  A
O47         Co50   2.006   1_455  S
O48          C55   1.255       .  A
O48         Co53   1.944       .  S
O49          C56   1.272       .  A
O49         Co52   1.895       .  S
Co50        O959   1.940       .  S
Co50        O273   2.035   1_554  S
Co50       O1209   2.002   1_554  S
Co51        O265   1.885       .  S
Co51        O967   2.113       .  S
Co51         O54   1.978       .  S
Co52       O1209   2.020   1_454  S
Co53         O54   2.026       .  S
O54       Co1205   2.002       .  S
O54       Co1207   2.020       .  S
C55         O966   1.274       .  A
C55         C184   1.488       .  S
C56         O274   1.295   1_554  A
C56         C343   1.486       .  S
C57         C127   1.468       .  S
C58         C199   1.487       .  S
O59          C67   1.251   1_565  A
O59         Co79   1.954       .  S
O60          C68   1.258       .  A
O60         Co80   1.871       .  S
O61          C69   1.284       .  A
O61         Co81   2.054       .  S
O62          C70   1.271       .  A
O62         Co82   2.024       .  S
O63         C531   1.258       .  A
O63        Co311   1.949       .  S
O64         C301   1.253   1_554  A
O64        Co541   1.966       .  S
O65          C68   1.291       .  A
O65         Co82   2.106       .  S
O66          C67   1.267       .  A
O66         Co81   2.041       .  S
C67         C172   1.492       .  S
C68         C115   1.486       .  S
C69         O525   1.258   1_545  A
C69         C163   1.497   1_545  S
C70         O295   1.253       .  A
C70          C88   1.494       .  S
O71         C546   1.277       .  A
O71        Co310   2.025       .  S
O72         C316   1.258       .  A
O72        Co542   2.014   1_545  S
O73          C86   1.254       .  A
O73         Co81   1.941   1_556  S
O74          C87   1.274       .  A
O74         Co82   1.918       .  S
O75          C87   1.290       .  A
O75         Co80   2.063       .  S
O76          C86   1.282   1_554  A
O76         Co79   2.052   1_545  S
O77          C84   1.272       .  A
O77         Co82   1.981       .  S
O78          C85   1.247   1_556  A
O78         Co81   1.970   1_556  S
Co79        O526   1.966       .  S
Co79        O302   2.025   1_554  S
Co79        O314   1.998   1_565  S
Co80        O294   1.949       .  S
Co80        O534   2.014       .  S
Co80        O545   1.979       .  S
Co81        O314   2.055       .  S
Co82        O545   2.044       .  S
O83        Co310   1.998   1_545  S
O83        Co542   1.979   1_545  S
O83        Co312   2.055       .  S
O83        Co544   2.044   1_545  S
C84         O533   1.277       .  A
C84         C136   1.481       .  S
C85         O303   1.258       .  A
C85         C124   1.468   1_554  S
C86         C103   1.473       .  S
C87         C151   1.485       .  S
C88          C89   1.398       .  A
C88         C324   1.423       .  A
C89          C90   1.398       .  A
C89          H98   1.080       .  S
C90          C91   1.427       .  A
C90          S94   1.804       .  S
C91         C323   1.404       .  A
C92          C93   1.405       .  A
C92         C322   1.404   1_554  A
C92          H99   1.084       .  S
C93         C319   1.423   1_554  A
C93          S95   1.804       .  S
S94          H97   1.408       .  S
S95          H96   1.404       .  S
C100        C101   1.404       .  A
C100        C336   1.420       .  A
C101        C102   1.404       .  A
C101        H110   1.084       .  S
C102        C334   1.421       .  A
C102        S106   1.808       .  S
C103        C104   1.399   1_556  A
C103        C333   1.421       .  A
C104        C105   1.395       .  A
C104        H111   1.085       .  S
C105        C331   1.420   1_554  A
C105        S107   1.805       .  S
S106        H109   1.400       .  S
S107        H108   1.408       .  S
C112        C287   1.486       .  S
C112        C113   1.407       .  A
C112        C348   1.415       .  A
C113        C114   1.409       .  A
C113        H122   1.083       .  S
C114        C115   1.418       .  A
C114        S118   1.797       .  S
C115        C347   1.400       .  A
C116        C117   1.382       .  A
C116        C346   1.400   1_554  A
C116        H123   1.084       .  S
C117        C343   1.415       .  A
C117        S119   1.792       .  S
S118        H121   1.404       .  S
S119        H120   1.402   1_554  S
C124        C129   1.408   1_556  A
C124        C356   1.404       .  A
C125        C126   1.405       .  A
C125        C355   1.404       .  A
C125        H134   1.084       .  S
C126        C358   1.412       .  A
C126        S130   1.799       .  S
C127        C128   1.401   1_556  A
C127        C357   1.412       .  A
C128        C129   1.393       .  A
C128        H135   1.084       .  S
C129        S131   1.800       .  S
S130        H133   1.405       .  S
S131        H132   1.406       .  S
C136        C141   1.417       .  A
C136        C599   1.398       .  A
C137        C138   1.398       .  A
C137        C598   1.398   1_545  A
C137        H146   1.078       .  S
C138        C601   1.409   1_545  A
C138        S142   1.792       .  S
C139        C140   1.401       .  A
C139        C600   1.409       .  A
C140        C141   1.403       .  A
C140        H147   1.084       .  S
C141        S143   1.796       .  S
S142        H145   1.406       .  S
S143        H144   1.396       .  S
C148        C473   1.488       .  S
C148        C149   1.412       .  A
C148        C615   1.410       .  A
C149        C150   1.401       .  A
C149        H158   1.084       .  S
C150        C151   1.411       .  A
C150        S154   1.799       .  S
C151        C614   1.409       .  A
C152        C153   1.396       .  A
C152        C613   1.409   1_545  A
C152        H159   1.084       .  S
C153        C610   1.410   1_545  A
C153        S155   1.793       .  S
S154        H157   1.407       .  S
S155        H156   1.406       .  S
C160        C165   1.417   1_565  A
C160        C623   1.396       .  A
C161        C162   1.403       .  A
C161        C622   1.396       .  A
C161        H170   1.078       .  S
C162        C625   1.426       .  A
C162        S166   1.802       .  S
C163        C164   1.402   1_565  A
C163        C624   1.426       .  A
C164        C165   1.400       .  A
C164        H171   1.084       .  S
C165        S167   1.795       .  S
S166        H169   1.408       .  S
S167        H168   1.405       .  S
C172        C177   1.418       .  A
C172        C635   1.404   1_545  A
C173        C174   1.387       .  A
C173        C634   1.404       .  A
C173        H182   1.084       .  S
C174        C637   1.409       .  A
C174        S178   1.789       .  S
C175        C488   1.491       .  S
C175        C176   1.410       .  A
C175        C636   1.409   1_545  A
C176        C177   1.415       .  A
C176        H183   1.083       .  S
C177        S179   1.800       .  S
S178        H181   1.406       .  S
S179        H180   1.407       .  S
C184        C189   1.413       .  A
C184       C1109   1.415       .  A
C185        C186   1.399       .  A
C185       C1108   1.415   1_455  A
C185        H194   1.083       .  S
C186        C187   1.401   1_455  A
C186        S190   1.789       .  S
C187       C1112   1.405       .  A
C188        C189   1.395       .  A
C188       C1111   1.405       .  A
C188        H195   1.083       .  S
C189        S191   1.801       .  S
S190        H193   1.407       .  S
S191        H192   1.406       .  S
C196        C197   1.400       .  A
C196       C1125   1.403       .  A
C197        C198   1.395       .  A
C197        H206   1.084       .  S
C198        C199   1.418       .  A
C198        S202   1.802       .  S
C199       C1124   1.414       .  A
C200        C201   1.397       .  A
C200       C1123   1.414   1_455  A
C200        H207   1.083       .  S
C201       C1120   1.403       .  A
C201        S203   1.805       .  S
S202        H205   1.407       .  S
S203        H204   1.406       .  S
C208        C213   1.418       .  A
C208       C1133   1.393       .  A
C209        C210   1.398       .  A
C209       C1132   1.393   1_455  A
C209        H218   1.078       .  S
C210        C211   1.414   1_455  A
C210        S214   1.790       .  S
C211       C1136   1.402       .  A
C212        C213   1.405       .  A
C212       C1135   1.402       .  A
C212        H219   1.084       .  S
C213        S215   1.803       .  S
S214        H217   1.405       .  S
S215        H216   1.405       .  S
C220        C221   1.405       .  A
C220        C225   1.412   1_455  A
C221        C222   1.410       .  A
C221        H230   1.084       .  S
C222        C223   1.421       .  A
C222        S226   1.802       .  S
C223        C224   1.403   1_455  A
C224        C225   1.385       .  A
C224       H1155   1.085       .  S
C225       S1151   1.801       .  S
S226        H229   1.394       .  S
S227       C1149   1.801       .  S
S227        H228   1.403       .  S
H231       C1148   1.085       .  S
O232        C240   1.275   1_545  A
O232       Co252   2.055   1_455  S
O233        C241   1.244       .  A
O233       Co253   2.000       .  S
O234        C242   1.288   1_565  A
O234       Co254   2.034   1_565  S
O235        C243   1.258       .  A
O235       Co255   1.947       .  S
O236        C704   1.276       .  A
O236      Co1177   1.944       .  S
O237       C1167   1.285       .  A
O237       Co714   2.057       .  S
O238        C241   1.247       .  A
O238       Co255   1.980       .  S
O239        C240   1.254       .  A
O239       Co254   1.959   1_565  S
C240        C391   1.488       .  S
C241        C427   1.459       .  S
C242        O698   1.276       .  A
C242        C841   1.488   1_545  S
C243       O1161   1.285       .  A
C243        C439   1.481       .  S
O244        C719   1.247       .  A
O244      Co1176   1.982       .  S
O245       C1182   1.240       .  A
O245       Co715   1.941       .  S
O246        C259   1.257       .  A
O246       Co254   2.037       .  S
O247        C260   1.265       .  A
O247       Co255   1.983       .  S
O248        C260   1.273       .  A
O248       Co253   2.016       .  S
O249        C259   1.243   1_655  A
O249       Co252   1.955       .  S
O250        C257   1.257       .  A
O250       Co255   2.019       .  S
O251        C258   1.258       .  A
O251       Co254   2.031       .  S
Co252       O699   2.057   1_545  S
Co252      O1168   1.982       .  S
Co252       O718   2.053       .  S
Co253      O1160   1.944       .  S
Co253       O707   1.941       .  S
Co253      O1180   1.935       .  S
Co254       O718   2.245   1_455  S
Co255      O1180   2.144       .  S
O256       Co714   2.053       .  S
O256      Co1177   1.935   1_655  S
O256       Co716   2.245   1_655  S
O256      Co1179   2.144       .  S
C257        O706   1.247       .  A
C257        C868   1.491       .  S
C258       O1169   1.240   1_455  A
C258        C418   1.478   1_455  S
C259        C454   1.485       .  S
C260        C370   1.481       .  S
O261        C269   1.255   1_655  A
O261       Co281   1.962       .  S
O262        C270   1.275   1_554  A
O262       Co282   1.994       .  S
O263        C271   1.301   1_455  A
O263       Co283   2.136       .  S
O264        C272   1.278       .  A
O264       Co284   2.051       .  S
O265       C1195   1.269       .  A
O266      Co1205   1.940       .  S
O267        C270   1.267       .  A
O267       Co284   1.996       .  S
O268        C269   1.266       .  A
O268       Co283   2.024       .  S
C269        C451   1.480       .  S
C270        C322   1.499       .  S
C271       O1189   1.269       .  A
C271        C442   1.484       .  S
C272        C331   1.490       .  S
O273       C1210   1.274       .  A
O274      Co1206   2.113   1_456  S
O275        C288   1.271       .  A
O275       Co283   1.984       .  S
O276        C289   1.260       .  A
O276       Co284   1.962       .  S
O277        C289   1.269       .  A
O277       Co282   2.014   1_556  S
O278        C288   1.272       .  A
O278       Co281   2.006   1_455  S
O279        C286   1.255       .  A
O279       Co284   1.944       .  S
O280        C287   1.272       .  A
O280       Co283   1.895       .  S
Co281      O1190   1.940       .  S
Co281       O978   2.002       .  S
Co282      O1198   2.113   1_554  S
Co282       O285   1.978   1_554  S
Co283       O978   2.020   1_455  S
Co284       O285   2.026       .  S
O285       Co974   2.002   1_556  S
O285       Co976   2.020   1_556  S
C286       O1197   1.274       .  A
C286        C415   1.488       .  S
C288        C358   1.468       .  S
C289        C430   1.487       .  S
O290        C298   1.251   1_565  A
O290       Co310   1.954       .  S
O291        C299   1.258   1_554  A
O291       Co311   1.871       .  S
O292        C300   1.284       .  A
O292       Co312   2.054       .  S
O293        C301   1.271       .  A
O293       Co313   2.024       .  S
O294        C762   1.258       .  A
O295       Co772   1.966       .  S
O296        C299   1.291       .  A
O296       Co313   2.106       .  S
O297        C298   1.267       .  A
O297       Co312   2.041       .  S
C298        C403   1.492       .  S
C299        C346   1.486       .  S
C300        O756   1.258   1_545  A
C300        C394   1.497   1_545  S
C301        C319   1.494       .  S
O302        C777   1.277       .  A
O303       Co773   2.014   1_545  S
O304        C317   1.254       .  A
O304       Co312   1.941       .  S
O305        C318   1.274       .  A
O305       Co313   1.918       .  S
O306        C318   1.290       .  A
O306       Co311   2.063   1_556  S
O307        C317   1.282       .  A
O307       Co310   2.052   1_545  S
O308        C315   1.272       .  A
O308       Co313   1.981       .  S
O309        C316   1.247       .  A
O309       Co312   1.970       .  S
Co310       O757   1.966       .  S
Co311       O765   2.014       .  S
Co311       O776   1.979       .  S
Co313       O776   2.044   1_556  S
O314       Co773   1.979   1_545  S
O314       Co775   2.044   1_544  S
C315        O764   1.277       .  A
C315        C367   1.481       .  S
C316        C355   1.468       .  S
C317        C334   1.473       .  S
C318        C382   1.485       .  S
C319        C320   1.398       .  A
C320        C321   1.398       .  A
C320        H329   1.080       .  S
C321        C322   1.427       .  A
C321        S325   1.804       .  S
C323        C324   1.405       .  A
C323        H330   1.084       .  S
C324        S326   1.804       .  S
S325        H328   1.408       .  S
S326        H327   1.404       .  S
C331        C332   1.404       .  A
C332        C333   1.404       .  A
C332        H341   1.084       .  S
C333        S337   1.808       .  S
C334        C335   1.399       .  A
C335        C336   1.395       .  A
C335        H342   1.085       .  S
C336        S338   1.805       .  S
S337        H340   1.400       .  S
S338        H339   1.408       .  S
C343        C344   1.407       .  A
C344        C345   1.409   1_554  A
C344        H353   1.083       .  S
C345        C346   1.418       .  A
C345        S349   1.797       .  S
C347        C348   1.382       .  A
C347        H354   1.084       .  S
C348        S350   1.792       .  S
S349        H352   1.404   1_556  S
S350        H351   1.402       .  S
C355        C360   1.408       .  A
C356        C357   1.405       .  A
C356        H365   1.084       .  S
C357        S361   1.799       .  S
C358        C359   1.401       .  A
C359        C360   1.393       .  A
C359        H366   1.084       .  S
C360        S362   1.800       .  S
S361        H364   1.405       .  S
S362        H363   1.406       .  S
C367        C830   1.398       .  A
C367        C372   1.417       .  A
C368        C829   1.398   1_545  A
C368        C369   1.398       .  A
C368        H377   1.078       .  S
C369        C832   1.409   1_545  A
C369        S373   1.792       .  S
C370        C831   1.409       .  A
C370        C371   1.401       .  A
C371        C372   1.403       .  A
C371        H378   1.084       .  S
C372        S374   1.796       .  S
S373        H376   1.406       .  S
S374        H375   1.396       .  S
C379        C704   1.488       .  S
C379        C380   1.412       .  A
C379        C846   1.410       .  A
C380        C381   1.401       .  A
C380        H389   1.084       .  S
C381        C382   1.411       .  A
C381        S385   1.799       .  S
C382        C845   1.409       .  A
C383        C844   1.409   1_545  A
C383        C384   1.396       .  A
C383        H390   1.084       .  S
C384        C841   1.410   1_545  A
C384        S386   1.793       .  S
S385        H388   1.407       .  S
S386        H387   1.406       .  S
C391        C854   1.396       .  A
C391        C396   1.417   1_565  A
C392        C853   1.396       .  A
C392        C393   1.403       .  A
C392        H401   1.079       .  S
C393        C856   1.426       .  A
C393        S397   1.802       .  S
C394        C855   1.426       .  A
C394        C395   1.402   1_565  A
C395        C396   1.400       .  A
C395        H402   1.084       .  S
C396        S398   1.795       .  S
S397        H400   1.408       .  S
S398        H399   1.405       .  S
C403        C866   1.404   1_545  A
C403        C408   1.418       .  A
C404        C865   1.404       .  A
C404        C405   1.387       .  A
C404        H413   1.084       .  S
C405        C868   1.409       .  A
C405        S409   1.789       .  S
C406        C719   1.491       .  S
C406        C867   1.409   1_545  A
C406        C407   1.410       .  A
C407        C408   1.415       .  A
C407        H414   1.083       .  S
C408        S410   1.800       .  S
S409        H412   1.406       .  S
S410        H411   1.407       .  S
C415       C1340   1.415       .  A
C415        C420   1.413       .  A
C416       C1339   1.415   1_455  A
C416        C417   1.399       .  A
C416        H425   1.083       .  S
C417        C418   1.401   1_455  A
C417        S421   1.789       .  S
C418       C1343   1.405       .  A
C419       C1342   1.405       .  A
C419        C420   1.395       .  A
C419        H426   1.083       .  S
C420        S422   1.801       .  S
S421        H424   1.407       .  S
S422        H423   1.406       .  S
C427        C428   1.400       .  A
C427       C1356   1.403       .  A
C428        C429   1.395       .  A
C428        H437   1.084       .  S
C429        C430   1.418       .  A
C429        S433   1.802       .  S
C430       C1355   1.414       .  A
C431       C1354   1.414   1_455  A
C431        C432   1.397       .  A
C431        H438   1.083       .  S
C432       C1351   1.403       .  A
C432        S434   1.805       .  S
S433        H436   1.407       .  S
S434        H435   1.406       .  S
C439       C1364   1.393       .  A
C439        C444   1.418       .  A
C440       C1363   1.393   1_455  A
C440        C441   1.398       .  A
C440        H449   1.078       .  S
C441        C442   1.414   1_455  A
C441        S445   1.790       .  S
C442       C1367   1.402       .  A
C443       C1366   1.402       .  A
C443        C444   1.405       .  A
C443        H450   1.084       .  S
C444        S446   1.803       .  S
S445        H448   1.405       .  S
S446        H447   1.405       .  S
C451        C452   1.405       .  A
C451        C456   1.412   1_455  A
C452        C453   1.410       .  A
C452        H461   1.084       .  S
C453        C454   1.421       .  A
C453        S457   1.802       .  S
C454        C455   1.403   1_455  A
C455        C456   1.385       .  A
C455       H1386   1.085       .  S
C456       S1382   1.801       .  S
S457        H460   1.394       .  S
S458       C1380   1.801       .  S
S458        H459   1.403       .  S
H462       C1379   1.085       .  S
O463        C471   1.275       .  A
O463       Co483   2.055   1_455  S
O464        C472   1.244       .  A
O464       Co484   2.000   1_565  S
O465        C473   1.288       .  A
O465       Co485   2.034       .  S
O466        C474   1.258       .  A
O466       Co486   1.947       .  S
O467      Co1408   1.944       .  S
O468       C1398   1.285       .  A
O469        C472   1.247       .  A
O469       Co486   1.980       .  S
O470        C471   1.254       .  A
O470       Co485   1.959       .  S
C471        C622   1.488       .  S
C472        C658   1.459       .  S
C474       O1392   1.285       .  A
C474        C670   1.481       .  S
O475      Co1407   1.982       .  S
O476       C1413   1.240       .  A
O477        C490   1.257       .  A
O477       Co485   2.037       .  S
O478        C491   1.265       .  A
O478       Co486   1.983       .  S
O479        C491   1.273       .  A
O479       Co484   2.016   1_565  S
O480        C490   1.243   1_655  A
O480       Co483   1.955       .  S
O481        C488   1.257   1_565  A
O481       Co486   2.019       .  S
O482        C489   1.258       .  A
O482       Co485   2.031       .  S
Co483      O1399   1.982       .  S
Co484      O1391   1.944       .  S
Co484      O1411   1.935       .  S
Co486      O1411   2.144   1_565  S
O487      Co1408   1.935   1_655  S
O487      Co1410   2.144   1_545  S
C489       O1400   1.240   1_455  A
C489        C649   1.478   1_455  S
C490        C685   1.485       .  S
C491        C601   1.481       .  S
O492        C500   1.255   1_655  A
O492       Co512   1.962       .  S
O493        C501   1.275       .  A
O493       Co513   1.994       .  S
O494        C502   1.301   1_455  A
O494       Co514   2.136       .  S
O495        C503   1.278       .  A
O495       Co515   2.051       .  S
O496       C1426   1.269       .  A
O496       Co744   1.885       .  S
O497        C734   1.253   1_554  A
O497      Co1436   1.940       .  S
O498        C501   1.267       .  A
O498       Co515   1.996       .  S
O499        C500   1.266       .  A
O499       Co514   2.024       .  S
C500        C682   1.480       .  S
C501        C553   1.499       .  S
C502       O1420   1.269       .  A
C502        C673   1.484       .  S
C503        O728   1.253       .  A
C503        C562   1.490       .  S
O504       C1441   1.274       .  A
O504       Co743   2.035       .  S
O505        C749   1.295       .  A
O505      Co1437   2.113   1_455  S
O506        C519   1.271       .  A
O506       Co514   1.984   1_556  S
O507        C520   1.260       .  A
O507       Co515   1.962       .  S
O508        C520   1.269       .  A
O508       Co513   2.014       .  S
O509        C519   1.272   1_554  A
O509       Co512   2.006   1_455  S
O510        C517   1.255       .  A
O510       Co515   1.944       .  S
O511        C518   1.272       .  A
O511       Co514   1.895       .  S
Co512      O1421   1.940       .  S
Co512       O735   2.035   1_554  S
Co512      O1671   2.002   1_554  S
Co513       O727   1.885       .  S
Co513      O1429   2.113       .  S
Co513       O516   1.978       .  S
Co514      O1671   2.020   1_454  S
Co515       O516   2.026       .  S
O516      Co1667   2.002       .  S
O516      Co1669   2.020       .  S
C517       O1428   1.274       .  A
C517        C646   1.488       .  S
C518        O736   1.295   1_554  A
C518        C805   1.486       .  S
C519        C589   1.468       .  S
C520        C661   1.487       .  S
O521        C529   1.251       .  A
O521       Co541   1.954       .  S
O522        C530   1.258       .  A
O522       Co542   1.871       .  S
O523        C531   1.284       .  A
O523       Co543   2.054       .  S
O524        C532   1.271       .  A
O524       Co544   2.024       .  S
O525       Co773   1.949       .  S
O526        C763   1.253   1_554  A
O527        C530   1.291       .  A
O527       Co544   2.106       .  S
O528        C529   1.267       .  A
O528       Co543   2.041       .  S
C529        C634   1.492       .  S
C530        C577   1.486       .  S
C531        C625   1.497       .  S
C532        O757   1.253       .  A
C532        C550   1.494       .  S
O533       Co772   2.025       .  S
O534        C778   1.258       .  A
O535        C548   1.254       .  A
O535       Co543   1.941   1_556  S
O536        C549   1.274       .  A
O536       Co544   1.918       .  S
O537        C549   1.290   1_545  A
O537       Co542   2.063   1_545  S
O538        C548   1.282   1_554  A
O538       Co541   2.052       .  S
O539        C546   1.272   1_545  A
O539       Co544   1.981   1_545  S
O540        C547   1.247   1_556  A
O540       Co543   1.970   1_556  S
Co541       O764   2.025   1_554  S
Co541       O776   1.998       .  S
Co542       O756   1.949       .  S
Co543       O776   2.055       .  S
O545       Co772   1.998       .  S
O545       Co774   2.055       .  S
C546        C598   1.481       .  S
C547        O765   1.258       .  A
C547        C586   1.468   1_554  S
C548        C565   1.473       .  S
C549        C613   1.485       .  S
C550        C551   1.398       .  A
C550        C786   1.423       .  A
C551        C552   1.398       .  A
C551        H560   1.080       .  S
C552        C553   1.427       .  A
C552        S556   1.804       .  S
C553        C785   1.404       .  A
C554        C784   1.404   1_554  A
C554        C555   1.405       .  A
C554        H561   1.084       .  S
C555        C781   1.423   1_554  A
C555        S557   1.804       .  S
S556        H559   1.408       .  S
S557        H558   1.404       .  S
C562        C563   1.404       .  A
C562        C798   1.420       .  A
C563        C564   1.404       .  A
C563        H572   1.084       .  S
C564        C796   1.421       .  A
C564        S568   1.808       .  S
C565        C795   1.421       .  A
C565        C566   1.399   1_556  A
C566        C567   1.395       .  A
C566        H573   1.085       .  S
C567        C793   1.420   1_554  A
C567        S569   1.805       .  S
S568        H571   1.400       .  S
S569        H570   1.408       .  S
C574        C749   1.486       .  S
C574        C575   1.407       .  A
C574        C810   1.415       .  A
C575        C576   1.409       .  A
C575        H584   1.083       .  S
C576        C577   1.418       .  A
C576        S580   1.797       .  S
C577        C809   1.400       .  A
C578        C808   1.400   1_554  A
C578        C579   1.382       .  A
C578        H585   1.084       .  S
C579        C805   1.415       .  A
C579        S581   1.792       .  S
S580        H583   1.404       .  S
S581        H582   1.402   1_554  S
C586        C818   1.404       .  A
C586        C591   1.408   1_556  A
C587        C817   1.404       .  A
C587        C588   1.405       .  A
C587        H596   1.084       .  S
C588        C820   1.412       .  A
C588        S592   1.799       .  S
C589        C819   1.412       .  A
C589        C590   1.401   1_556  A
C590        C591   1.393       .  A
C590        H597   1.084       .  S
C591        S593   1.800       .  S
S592        H595   1.405       .  S
S593        H594   1.406       .  S
C598        C603   1.417       .  A
C599        C600   1.398       .  A
C599        H608   1.078       .  S
C600        S604   1.792       .  S
C601        C602   1.401       .  A
C602        C603   1.403       .  A
C602        H609   1.084       .  S
C603        S605   1.796       .  S
S604        H607   1.406       .  S
S605        H606   1.396       .  S
C610        C611   1.412       .  A
C611        C612   1.401       .  A
C611        H620   1.084       .  S
C612        C613   1.411       .  A
C612        S616   1.799       .  S
C614        C615   1.396       .  A
C614        H621   1.084       .  S
C615        S617   1.793       .  S
S616        H619   1.407       .  S
S617        H618   1.406       .  S
C622        C627   1.417       .  A
C623        C624   1.403       .  A
C623        H632   1.078       .  S
C624        S628   1.802       .  S
C625        C626   1.402       .  A
C626        C627   1.400       .  A
C626        H633   1.084       .  S
C627        S629   1.795       .  S
S628        H631   1.408       .  S
S629        H630   1.405       .  S
C634        C639   1.418       .  A
C635        C636   1.387       .  A
C635        H644   1.084       .  S
C636        S640   1.789       .  S
C637        C638   1.410       .  A
C638        C639   1.415       .  A
C638        H645   1.083       .  S
C639        S641   1.800       .  S
S640        H643   1.406       .  S
S641        H642   1.407       .  S
C646       C1571   1.415       .  A
C646        C651   1.413       .  A
C647       C1570   1.415   1_455  A
C647        C648   1.399       .  A
C647        H656   1.083       .  S
C648        C649   1.401   1_455  A
C648        S652   1.789       .  S
C649       C1574   1.405       .  A
C650       C1573   1.405       .  A
C650        C651   1.395       .  A
C650        H657   1.083       .  S
C651        S653   1.801       .  S
S652        H655   1.407       .  S
S653        H654   1.406       .  S
C658        C659   1.400       .  A
C658       C1587   1.403       .  A
C659        C660   1.395       .  A
C659        H668   1.084       .  S
C660        C661   1.418       .  A
C660        S664   1.802       .  S
C661       C1586   1.414       .  A
C662       C1585   1.414   1_455  A
C662        C663   1.397       .  A
C662        H669   1.083       .  S
C663       C1582   1.403       .  A
C663        S665   1.805       .  S
S664        H667   1.407       .  S
S665        H666   1.406       .  S
C670       C1595   1.393       .  A
C670        C675   1.418       .  A
C671       C1594   1.393   1_455  A
C671        C672   1.398       .  A
C671        H680   1.078       .  S
C672        C673   1.414   1_455  A
C672        S676   1.790       .  S
C673       C1598   1.402       .  A
C674       C1597   1.402       .  A
C674        C675   1.405       .  A
C674        H681   1.084       .  S
C675        S677   1.803       .  S
S676        H679   1.405       .  S
S677        H678   1.405       .  S
C682        C683   1.405       .  A
C682        C687   1.412   1_455  A
C683        C684   1.410       .  A
C683        H692   1.084       .  S
C684        C685   1.421       .  A
C684        S688   1.802       .  S
C685        C686   1.403   1_455  A
C686        C687   1.385       .  A
C686       H1617   1.085       .  S
C687       S1613   1.801       .  S
S688        H691   1.394       .  S
S689       C1611   1.801       .  S
S689        H690   1.403       .  S
H693       C1610   1.085       .  S
O694        C702   1.275       .  A
O694       Co714   2.055   1_455  S
O695        C703   1.244       .  A
O695       Co715   2.000   1_565  S
O696        C704   1.288       .  A
O696       Co716   2.034       .  S
O697        C705   1.258       .  A
O697       Co717   1.947       .  S
O698      Co1639   1.944       .  S
O699       C1629   1.285       .  A
O700        C703   1.247       .  A
O700       Co717   1.980       .  S
O701        C702   1.254       .  A
O701       Co716   1.959       .  S
C702        C853   1.488       .  S
C703        C889   1.459       .  S
C705       O1623   1.285       .  A
C705        C901   1.481       .  S
O706      Co1638   1.982       .  S
O707       C1644   1.240       .  A
O708        C721   1.257       .  A
O708       Co716   2.037       .  S
O709        C722   1.265       .  A
O709       Co717   1.983       .  S
O710        C722   1.273       .  A
O710       Co715   2.016   1_565  S
O711        C721   1.243   1_655  A
O711       Co714   1.955       .  S
O712        C719   1.257   1_565  A
O712       Co717   2.019       .  S
O713        C720   1.258       .  A
O713       Co716   2.031       .  S
Co714      O1630   1.982       .  S
Co715      O1622   1.944       .  S
Co715      O1642   1.935       .  S
Co717      O1642   2.144   1_565  S
O718      Co1639   1.935   1_655  S
O718      Co1641   2.144   1_545  S
C720       O1631   1.240   1_455  A
C720        C880   1.478   1_455  S
C721        C916   1.485       .  S
C722        C832   1.481       .  S
O723        C731   1.255   1_655  A
O723       Co743   1.962       .  S
O724        C732   1.275   1_554  A
O724       Co744   1.994       .  S
O725        C733   1.301   1_455  A
O725       Co745   2.136       .  S
O726        C734   1.278       .  A
O726       Co746   2.051       .  S
O727       C1657   1.269       .  A
O728      Co1667   1.940       .  S
O729        C732   1.267       .  A
O729       Co746   1.996       .  S
O730        C731   1.266       .  A
O730       Co745   2.024       .  S
C731        C913   1.480       .  S
C732        C784   1.499       .  S
C733       O1651   1.269       .  A
C733        C904   1.484       .  S
C734        C793   1.490       .  S
O735       C1672   1.274       .  A
O736      Co1668   2.113   1_456  S
O737        C750   1.271       .  A
O737       Co745   1.984       .  S
O738        C751   1.260       .  A
O738       Co746   1.962       .  S
O739        C751   1.269       .  A
O739       Co744   2.014   1_556  S
O740        C750   1.272       .  A
O740       Co743   2.006   1_455  S
O741        C748   1.255       .  A
O741       Co746   1.944       .  S
O742        C749   1.272       .  A
O742       Co745   1.895       .  S
Co743      O1652   1.940       .  S
Co743      O1440   2.002       .  S
Co744      O1660   2.113   1_554  S
Co744       O747   1.978   1_554  S
Co745      O1440   2.020   1_455  S
Co746       O747   2.026       .  S
O747      Co1436   2.002   1_556  S
O747      Co1438   2.020   1_556  S
C748       O1659   1.274       .  A
C748        C877   1.488       .  S
C750        C820   1.468       .  S
C751        C892   1.487       .  S
O752        C760   1.251       .  A
O752       Co772   1.954       .  S
O753        C761   1.258   1_554  A
O753       Co773   1.871       .  S
O754        C762   1.284       .  A
O754       Co774   2.054       .  S
O755        C763   1.271       .  A
O755       Co775   2.024       .  S
O758        C761   1.291       .  A
O758       Co775   2.106       .  S
O759        C760   1.267       .  A
O759       Co774   2.041       .  S
C760        C865   1.492       .  S
C761        C808   1.486       .  S
C762        C856   1.497       .  S
C763        C781   1.494       .  S
O766        C779   1.254       .  A
O766       Co774   1.941       .  S
O767        C780   1.274       .  A
O767       Co775   1.918       .  S
O768        C780   1.290   1_545  A
O768       Co773   2.063   1_546  S
O769        C779   1.282       .  A
O769       Co772   2.052       .  S
O770        C777   1.272   1_545  A
O770       Co775   1.981   1_545  S
O771        C778   1.247       .  A
O771       Co774   1.970       .  S
C777        C829   1.481       .  S
C778        C817   1.468       .  S
C779        C796   1.473       .  S
C780        C844   1.485       .  S
C781        C782   1.398       .  A
C782        C783   1.398       .  A
C782        H791   1.080       .  S
C783        C784   1.427       .  A
C783        S787   1.804       .  S
C785        C786   1.405       .  A
C785        H792   1.084       .  S
C786        S788   1.804       .  S
S787        H790   1.408       .  S
S788        H789   1.404       .  S
C793        C794   1.404       .  A
C794        C795   1.404       .  A
C794        H803   1.084       .  S
C795        S799   1.808       .  S
C796        C797   1.399       .  A
C797        C798   1.395       .  A
C797        H804   1.085       .  S
C798        S800   1.805       .  S
S799        H802   1.400       .  S
S800        H801   1.408       .  S
C805        C806   1.407       .  A
C806        C807   1.409   1_554  A
C806        H815   1.083       .  S
C807        C808   1.418       .  A
C807        S811   1.797       .  S
C809        C810   1.382       .  A
C809        H816   1.084       .  S
C810        S812   1.792       .  S
S811        H814   1.404   1_556  S
S812        H813   1.402       .  S
C817        C822   1.408       .  A
C818        C819   1.405       .  A
C818        H827   1.084       .  S
C819        S823   1.799       .  S
C820        C821   1.401       .  A
C821        C822   1.393       .  A
C821        H828   1.084       .  S
C822        S824   1.800       .  S
S823        H826   1.405       .  S
S824        H825   1.406       .  S
C829        C834   1.417       .  A
C830        C831   1.398       .  A
C830        H839   1.078       .  S
C831        S835   1.792       .  S
C832        C833   1.401       .  A
C833        C834   1.403       .  A
C833        H840   1.084       .  S
C834        S836   1.796       .  S
S835        H838   1.406       .  S
S836        H837   1.396       .  S
C841        C842   1.412       .  A
C842        C843   1.401       .  A
C842        H851   1.084       .  S
C843        C844   1.411       .  A
C843        S847   1.799       .  S
C845        C846   1.396       .  A
C845        H852   1.084       .  S
C846        S848   1.793       .  S
S847        H850   1.407       .  S
S848        H849   1.406       .  S
C853        C858   1.417       .  A
C854        C855   1.403       .  A
C854        H863   1.079       .  S
C855        S859   1.802       .  S
C856        C857   1.402       .  A
C857        C858   1.400       .  A
C857        H864   1.084       .  S
C858        S860   1.795       .  S
S859        H862   1.408       .  S
S860        H861   1.405       .  S
C865        C870   1.418       .  A
C866        C867   1.387       .  A
C866        H875   1.084       .  S
C867        S871   1.789       .  S
C868        C869   1.410       .  A
C869        C870   1.415       .  A
C869        H876   1.083       .  S
C870        S872   1.800       .  S
S871        H874   1.406       .  S
S872        H873   1.407       .  S
C877       C1802   1.415       .  A
C877        C882   1.413       .  A
C878       C1801   1.415   1_455  A
C878        C879   1.399       .  A
C878        H887   1.083       .  S
C879        C880   1.401   1_455  A
C879        S883   1.789       .  S
C880       C1805   1.405       .  A
C881       C1804   1.405       .  A
C881        C882   1.395       .  A
C881        H888   1.083       .  S
C882        S884   1.801       .  S
S883        H886   1.407       .  S
S884        H885   1.406       .  S
C889        C890   1.400       .  A
C889       C1818   1.403       .  A
C890        C891   1.395       .  A
C890        H899   1.084       .  S
C891        C892   1.418       .  A
C891        S895   1.802       .  S
C892       C1817   1.414       .  A
C893       C1816   1.414   1_455  A
C893        C894   1.397       .  A
C893        H900   1.083       .  S
C894       C1813   1.403       .  A
C894        S896   1.805       .  S
S895        H898   1.407       .  S
S896        H897   1.406       .  S
C901       C1826   1.393       .  A
C901        C906   1.418       .  A
C902       C1825   1.393   1_455  A
C902        C903   1.398       .  A
C902        H911   1.078       .  S
C903        C904   1.414   1_455  A
C903        S907   1.790       .  S
C904       C1829   1.402       .  A
C905       C1828   1.402       .  A
C905        C906   1.405       .  A
C905        H912   1.084       .  S
C906        S908   1.803       .  S
S907        H910   1.405       .  S
S908        H909   1.405       .  S
C913        C914   1.405       .  A
C913        C918   1.412   1_455  A
C914        C915   1.410       .  A
C914        H923   1.084       .  S
C915        C916   1.421       .  A
C915        S919   1.802       .  S
C916        C917   1.403   1_455  A
C917        C918   1.385       .  A
C917       H1848   1.085       .  S
C918       S1844   1.801       .  S
S919        H922   1.394       .  S
S920       C1842   1.801       .  S
S920        H921   1.403       .  S
H924       C1841   1.085       .  S
O925        C933   1.275   1_545  A
O925       Co945   2.055       .  S
O926        C934   1.244   1_455  A
O926       Co946   2.000       .  S
O927        C935   1.288   1_565  A
O927       Co947   2.034   1_565  S
O928        C936   1.258       .  A
O928       Co948   1.947       .  S
O929       C1397   1.276       .  A
O930      Co1407   2.057       .  S
O931        C934   1.247       .  A
O931       Co948   1.980       .  S
O932        C933   1.254       .  A
O932       Co947   1.959   1_565  S
C933       C1084   1.488       .  S
C934       C1120   1.459   1_655  S
C935       O1391   1.276       .  A
C935       C1534   1.488   1_545  S
C936       C1132   1.481       .  S
O937       C1412   1.247       .  A
O938      Co1408   1.941   1_655  S
O939        C952   1.257       .  A
O939       Co947   2.037       .  S
O940        C953   1.265       .  A
O940       Co948   1.983       .  S
O941        C953   1.273       .  A
O941       Co946   2.016   1_655  S
O942        C952   1.243       .  A
O942       Co945   1.955       .  S
O943        C950   1.257       .  A
O943       Co948   2.019       .  S
O944        C951   1.258       .  A
O944       Co947   2.031       .  S
Co945      O1392   2.057   1_545  S
Co945      O1411   2.053       .  S
Co946      O1400   1.941   1_455  S
Co947      O1411   2.245       .  S
O949      Co1407   2.053       .  S
O949      Co1409   2.245       .  S
C950       O1399   1.247       .  A
C950       C1561   1.491       .  S
C951       C1111   1.478       .  S
C952       C1147   1.485       .  S
C953       C1063   1.481       .  S
O954        C962   1.255       .  A
O954       Co974   1.962       .  S
O955        C963   1.275       .  A
O955       Co975   1.994       .  S
O956        C964   1.301       .  A
O956       Co976   2.136       .  S
O957        C965   1.278       .  A
O957       Co977   2.051       .  S
O958      Co1206   1.885       .  S
O959       C1196   1.253   1_554  A
O960        C963   1.267       .  A
O960       Co977   1.996       .  S
O961        C962   1.266       .  A
O961       Co976   2.024       .  S
C962       C1144   1.480       .  S
C963       C1015   1.499       .  S
C964       C1135   1.484       .  S
C965       O1190   1.253       .  A
C965       C1024   1.490       .  S
O966      Co1205   2.035       .  S
O967       C1211   1.295       .  A
O968        C981   1.271       .  A
O968       Co976   1.984   1_556  S
O969        C982   1.260       .  A
O969       Co977   1.962       .  S
O970        C982   1.269       .  A
O970       Co975   2.014       .  S
O971        C981   1.272   1_554  A
O971       Co974   2.006       .  S
O972        C979   1.255       .  A
O972       Co977   1.944       .  S
O973        C980   1.272       .  A
O973       Co976   1.895       .  S
Co974      O1197   2.035   1_554  S
Co975      O1189   1.885       .  S
Co975       O978   1.978       .  S
Co977       O978   2.026       .  S
C979       C1108   1.488       .  S
C980       O1198   1.295   1_554  A
C980       C1267   1.486       .  S
C981       C1051   1.468       .  S
C982       C1123   1.487       .  S
O983        C991   1.251   1_565  A
O983      Co1003   1.954       .  S
O984        C992   1.258       .  A
O984      Co1004   1.871       .  S
O985        C993   1.284       .  A
O985      Co1005   2.054       .  S
O986        C994   1.271       .  A
O986      Co1006   2.024       .  S
O987       C1455   1.258       .  A
O987      Co1235   1.949       .  S
O988       C1225   1.253   1_554  A
O988      Co1465   1.966       .  S
O989        C992   1.291       .  A
O989      Co1006   2.106       .  S
O990        C991   1.267       .  A
O990      Co1005   2.041       .  S
C991       C1096   1.492       .  S
C992       C1039   1.486       .  S
C993       O1449   1.258   1_545  A
C993       C1087   1.497   1_545  S
C994       O1219   1.253       .  A
C994       C1012   1.494       .  S
O995       C1470   1.277       .  A
O995      Co1234   2.025       .  S
O996       C1240   1.258       .  A
O996      Co1466   2.014   1_545  S
O997       C1010   1.254       .  A
O997      Co1005   1.941   1_556  S
O998       C1011   1.274       .  A
O998      Co1006   1.918       .  S
O999       C1011   1.290       .  A
O999      Co1004   2.063       .  S
O1000      C1010   1.282   1_554  A
O1000     Co1003   2.052   1_545  S
O1001      C1008   1.272       .  A
O1001     Co1006   1.981       .  S
O1002      C1009   1.247   1_556  A
O1002     Co1005   1.970   1_556  S
Co1003     O1450   1.966       .  S
Co1003     O1226   2.025   1_554  S
Co1003     O1238   1.998   1_565  S
Co1004     O1218   1.949       .  S
Co1004     O1458   2.014       .  S
Co1004     O1469   1.979       .  S
Co1005     O1238   2.055       .  S
Co1006     O1469   2.044       .  S
O1007     Co1234   1.998   1_545  S
O1007     Co1466   1.979   1_545  S
O1007     Co1236   2.055       .  S
O1007     Co1468   2.044   1_545  S
C1008      O1457   1.277       .  A
C1008      C1060   1.481       .  S
C1009      O1227   1.258       .  A
C1009      C1048   1.468   1_554  S
C1010      C1027   1.473       .  S
C1011      C1075   1.485       .  S
C1012      C1013   1.398       .  A
C1012      C1248   1.423       .  A
C1013      C1014   1.398       .  A
C1013      H1022   1.080       .  S
C1014      C1015   1.427       .  A
C1014      S1018   1.804       .  S
C1015      C1247   1.404       .  A
C1016      C1246   1.404   1_554  A
C1016      C1017   1.405       .  A
C1016      H1023   1.084       .  S
C1017      C1243   1.423   1_554  A
C1017      S1019   1.804       .  S
S1018      H1021   1.408       .  S
S1019      H1020   1.404       .  S
C1024      C1025   1.404       .  A
C1024      C1260   1.420       .  A
C1025      C1026   1.404       .  A
C1025      H1034   1.084       .  S
C1026      C1258   1.421       .  A
C1026      S1030   1.808       .  S
C1027      C1257   1.421       .  A
C1027      C1028   1.399   1_556  A
C1028      C1029   1.395       .  A
C1028      H1035   1.085       .  S
C1029      C1255   1.420   1_554  A
C1029      S1031   1.805       .  S
S1030      H1033   1.400       .  S
S1031      H1032   1.408       .  S
C1036      C1211   1.486       .  S
C1036      C1037   1.407       .  A
C1036      C1272   1.415       .  A
C1037      C1038   1.409       .  A
C1037      H1046   1.083       .  S
C1038      C1039   1.418       .  A
C1038      S1042   1.797       .  S
C1039      C1271   1.400       .  A
C1040      C1270   1.400   1_554  A
C1040      C1041   1.382       .  A
C1040      H1047   1.084       .  S
C1041      C1267   1.415       .  A
C1041      S1043   1.792       .  S
S1042      H1045   1.404       .  S
S1043      H1044   1.402   1_554  S
C1048      C1280   1.404       .  A
C1048      C1053   1.408   1_556  A
C1049      C1279   1.404       .  A
C1049      C1050   1.405       .  A
C1049      H1058   1.084       .  S
C1050      C1282   1.412       .  A
C1050      S1054   1.799       .  S
C1051      C1281   1.412       .  A
C1051      C1052   1.401   1_556  A
C1052      C1053   1.393       .  A
C1052      H1059   1.084       .  S
C1053      S1055   1.800       .  S
S1054      H1057   1.405       .  S
S1055      H1056   1.406       .  S
C1060      C1523   1.398       .  A
C1060      C1065   1.417       .  A
C1061      C1522   1.398   1_545  A
C1061      C1062   1.398       .  A
C1061      H1070   1.078       .  S
C1062      C1525   1.409   1_545  A
C1062      S1066   1.792       .  S
C1063      C1524   1.409       .  A
C1063      C1064   1.401       .  A
C1064      C1065   1.403       .  A
C1064      H1071   1.084       .  S
C1065      S1067   1.796       .  S
S1066      H1069   1.406       .  S
S1067      H1068   1.396       .  S
C1072      C1397   1.488       .  S
C1072      C1073   1.412       .  A
C1072      C1539   1.410       .  A
C1073      C1074   1.401       .  A
C1073      H1082   1.084       .  S
C1074      C1075   1.411       .  A
C1074      S1078   1.799       .  S
C1075      C1538   1.409       .  A
C1076      C1537   1.409   1_545  A
C1076      C1077   1.396       .  A
C1076      H1083   1.084       .  S
C1077      C1534   1.410   1_545  A
C1077      S1079   1.793       .  S
S1078      H1081   1.407       .  S
S1079      H1080   1.406       .  S
C1084      C1547   1.396       .  A
C1084      C1089   1.417   1_565  A
C1085      C1546   1.396       .  A
C1085      C1086   1.403       .  A
C1085      H1094   1.078       .  S
C1086      C1549   1.426       .  A
C1086      S1090   1.802       .  S
C1087      C1548   1.426       .  A
C1087      C1088   1.402   1_565  A
C1088      C1089   1.400       .  A
C1088      H1095   1.084       .  S
C1089      S1091   1.795       .  S
S1090      H1093   1.408       .  S
S1091      H1092   1.405       .  S
C1096      C1559   1.404   1_545  A
C1096      C1101   1.418       .  A
C1097      C1558   1.404       .  A
C1097      C1098   1.387       .  A
C1097      H1106   1.084       .  S
C1098      C1561   1.409       .  A
C1098      S1102   1.789       .  S
C1099      C1412   1.491       .  S
C1099      C1560   1.409   1_545  A
C1099      C1100   1.410       .  A
C1100      C1101   1.415       .  A
C1100      H1107   1.083       .  S
C1101      S1103   1.800       .  S
S1102      H1105   1.406       .  S
S1103      H1104   1.407       .  S
C1108      C1113   1.413       .  A
C1109      C1110   1.399       .  A
C1109      H1118   1.083       .  S
C1110      C1111   1.401       .  A
C1110      S1114   1.789       .  S
C1112      C1113   1.395       .  A
C1112      H1119   1.083       .  S
C1113      S1115   1.801       .  S
S1114      H1117   1.407       .  S
S1115      H1116   1.406       .  S
C1120      C1121   1.400   1_455  A
C1121      C1122   1.395       .  A
C1121      H1130   1.084       .  S
C1122      C1123   1.418       .  A
C1122      S1126   1.802       .  S
C1124      C1125   1.397       .  A
C1124      H1131   1.083       .  S
C1125      S1127   1.805       .  S
S1126      H1129   1.407       .  S
S1127      H1128   1.406       .  S
C1132      C1137   1.418       .  A
C1133      C1134   1.398       .  A
C1133      H1142   1.078       .  S
C1134      C1135   1.414       .  A
C1134      S1138   1.790       .  S
C1136      C1137   1.405       .  A
C1136      H1143   1.084       .  S
C1137      S1139   1.803       .  S
S1138      H1141   1.405       .  S
S1139      H1140   1.405       .  S
C1144      C1145   1.405       .  A
C1144      C1149   1.412       .  A
C1145      C1146   1.410       .  A
C1145      H1154   1.084       .  S
C1146      C1147   1.421       .  A
C1146      S1150   1.802       .  S
C1147      C1148   1.403       .  A
C1148      C1149   1.385       .  A
S1150      H1153   1.394       .  S
S1151      H1152   1.403       .  S
O1156      C1164   1.275   1_545  A
O1156     Co1176   2.055       .  S
O1157      C1165   1.244   1_455  A
O1157     Co1177   2.000       .  S
O1158      C1166   1.288   1_565  A
O1158     Co1178   2.034   1_565  S
O1159      C1167   1.258       .  A
O1159     Co1179   1.947       .  S
O1160      C1628   1.276       .  A
O1161     Co1638   2.057       .  S
O1162      C1165   1.247       .  A
O1162     Co1179   1.980       .  S
O1163      C1164   1.254       .  A
O1163     Co1178   1.959   1_565  S
C1164      C1315   1.488       .  S
C1165      C1351   1.459   1_655  S
C1166      O1622   1.276       .  A
C1166      C1765   1.488   1_545  S
C1167      C1363   1.481       .  S
O1168      C1643   1.247       .  A
O1169     Co1639   1.941   1_655  S
O1170      C1183   1.257       .  A
O1170     Co1178   2.037       .  S
O1171      C1184   1.265       .  A
O1171     Co1179   1.983       .  S
O1172      C1184   1.273       .  A
O1172     Co1177   2.016   1_655  S
O1173      C1183   1.243       .  A
O1173     Co1176   1.955       .  S
O1174      C1181   1.257       .  A
O1174     Co1179   2.019       .  S
O1175      C1182   1.258       .  A
O1175     Co1178   2.031       .  S
Co1176     O1623   2.057   1_545  S
Co1176     O1642   2.053       .  S
Co1177     O1631   1.941   1_455  S
Co1178     O1642   2.245       .  S
O1180     Co1638   2.053       .  S
O1180     Co1640   2.245       .  S
C1181      O1630   1.247       .  A
C1181      C1792   1.491       .  S
C1182      C1342   1.478       .  S
C1183      C1378   1.485       .  S
C1184      C1294   1.481       .  S
O1185      C1193   1.255       .  A
O1185     Co1205   1.962       .  S
O1186      C1194   1.275   1_554  A
O1186     Co1206   1.994       .  S
O1187      C1195   1.301       .  A
O1187     Co1207   2.136       .  S
O1188      C1196   1.278       .  A
O1188     Co1208   2.051       .  S
O1191      C1194   1.267       .  A
O1191     Co1208   1.996       .  S
O1192      C1193   1.266       .  A
O1192     Co1207   2.024       .  S
C1193      C1375   1.480       .  S
C1194      C1246   1.499       .  S
C1195      C1366   1.484       .  S
C1196      C1255   1.490       .  S
O1199      C1212   1.271       .  A
O1199     Co1207   1.984       .  S
O1200      C1213   1.260       .  A
O1200     Co1208   1.962       .  S
O1201      C1213   1.269       .  A
O1201     Co1206   2.014   1_556  S
O1202      C1212   1.272       .  A
O1202     Co1205   2.006       .  S
O1203      C1210   1.255       .  A
O1203     Co1208   1.944       .  S
O1204      C1211   1.272       .  A
O1204     Co1207   1.895       .  S
Co1206     O1209   1.978   1_554  S
Co1208     O1209   2.026       .  S
C1210      C1339   1.488       .  S
C1212      C1282   1.468       .  S
C1213      C1354   1.487       .  S
O1214      C1222   1.251   1_565  A
O1214     Co1234   1.954       .  S
O1215      C1223   1.258   1_554  A
O1215     Co1235   1.871       .  S
O1216      C1224   1.284       .  A
O1216     Co1236   2.054       .  S
O1217      C1225   1.271       .  A
O1217     Co1237   2.024       .  S
O1218      C1686   1.258       .  A
O1219     Co1696   1.966       .  S
O1220      C1223   1.291       .  A
O1220     Co1237   2.106       .  S
O1221      C1222   1.267       .  A
O1221     Co1236   2.041       .  S
C1222      C1327   1.492       .  S
C1223      C1270   1.486       .  S
C1224      O1680   1.258   1_545  A
C1224      C1318   1.497   1_545  S
C1225      C1243   1.494       .  S
O1226      C1701   1.277       .  A
O1227     Co1697   2.014   1_545  S
O1228      C1241   1.254       .  A
O1228     Co1236   1.941       .  S
O1229      C1242   1.274       .  A
O1229     Co1237   1.918       .  S
O1230      C1242   1.290       .  A
O1230     Co1235   2.063   1_556  S
O1231      C1241   1.282       .  A
O1231     Co1234   2.052   1_545  S
O1232      C1239   1.272       .  A
O1232     Co1237   1.981       .  S
O1233      C1240   1.247       .  A
O1233     Co1236   1.970       .  S
Co1234     O1681   1.966       .  S
Co1235     O1689   2.014       .  S
Co1235     O1700   1.979       .  S
Co1237     O1700   2.044   1_556  S
O1238     Co1697   1.979   1_545  S
O1238     Co1699   2.044   1_544  S
C1239      O1688   1.277       .  A
C1239      C1291   1.481       .  S
C1240      C1279   1.468       .  S
C1241      C1258   1.473       .  S
C1242      C1306   1.485       .  S
C1243      C1244   1.398       .  A
C1244      C1245   1.398       .  A
C1244      H1253   1.080       .  S
C1245      C1246   1.427       .  A
C1245      S1249   1.804       .  S
C1247      C1248   1.405       .  A
C1247      H1254   1.084       .  S
C1248      S1250   1.804       .  S
S1249      H1252   1.408       .  S
S1250      H1251   1.404       .  S
C1255      C1256   1.404       .  A
C1256      C1257   1.404       .  A
C1256      H1265   1.084       .  S
C1257      S1261   1.808       .  S
C1258      C1259   1.399       .  A
C1259      C1260   1.395       .  A
C1259      H1266   1.085       .  S
C1260      S1262   1.805       .  S
S1261      H1264   1.400       .  S
S1262      H1263   1.408       .  S
C1267      C1268   1.407       .  A
C1268      C1269   1.409   1_554  A
C1268      H1277   1.083       .  S
C1269      C1270   1.418       .  A
C1269      S1273   1.797       .  S
C1271      C1272   1.382       .  A
C1271      H1278   1.084       .  S
C1272      S1274   1.792       .  S
S1273      H1276   1.404   1_556  S
S1274      H1275   1.402       .  S
C1279      C1284   1.408       .  A
C1280      C1281   1.405       .  A
C1280      H1289   1.084       .  S
C1281      S1285   1.799       .  S
C1282      C1283   1.401       .  A
C1283      C1284   1.393       .  A
C1283      H1290   1.084       .  S
C1284      S1286   1.800       .  S
S1285      H1288   1.405       .  S
S1286      H1287   1.406       .  S
C1291      C1754   1.398       .  A
C1291      C1296   1.417       .  A
C1292      C1753   1.398   1_545  A
C1292      C1293   1.398       .  A
C1292      H1301   1.078       .  S
C1293      C1756   1.409   1_545  A
C1293      S1297   1.792       .  S
C1294      C1755   1.409       .  A
C1294      C1295   1.401       .  A
C1295      C1296   1.403       .  A
C1295      H1302   1.084       .  S
C1296      S1298   1.796       .  S
S1297      H1300   1.406       .  S
S1298      H1299   1.396       .  S
C1303      C1628   1.488       .  S
C1303      C1304   1.412       .  A
C1303      C1770   1.410       .  A
C1304      C1305   1.401       .  A
C1304      H1313   1.084       .  S
C1305      C1306   1.411       .  A
C1305      S1309   1.799       .  S
C1306      C1769   1.409       .  A
C1307      C1768   1.409   1_545  A
C1307      C1308   1.396       .  A
C1307      H1314   1.084       .  S
C1308      C1765   1.410   1_545  A
C1308      S1310   1.793       .  S
S1309      H1312   1.407       .  S
S1310      H1311   1.406       .  S
C1315      C1778   1.396       .  A
C1315      C1320   1.417   1_565  A
C1316      C1777   1.396       .  A
C1316      C1317   1.403       .  A
C1316      H1325   1.079       .  S
C1317      C1780   1.426       .  A
C1317      S1321   1.802       .  S
C1318      C1779   1.426       .  A
C1318      C1319   1.402   1_565  A
C1319      C1320   1.400       .  A
C1319      H1326   1.084       .  S
C1320      S1322   1.795       .  S
S1321      H1324   1.408       .  S
S1322      H1323   1.405       .  S
C1327      C1790   1.404   1_545  A
C1327      C1332   1.418       .  A
C1328      C1789   1.404       .  A
C1328      C1329   1.387       .  A
C1328      H1337   1.084       .  S
C1329      C1792   1.409       .  A
C1329      S1333   1.789       .  S
C1330      C1643   1.491       .  S
C1330      C1791   1.409   1_545  A
C1330      C1331   1.410       .  A
C1331      C1332   1.415       .  A
C1331      H1338   1.083       .  S
C1332      S1334   1.800       .  S
S1333      H1336   1.406       .  S
S1334      H1335   1.407       .  S
C1339      C1344   1.413       .  A
C1340      C1341   1.399       .  A
C1340      H1349   1.083       .  S
C1341      C1342   1.401       .  A
C1341      S1345   1.789       .  S
C1343      C1344   1.395       .  A
C1343      H1350   1.083       .  S
C1344      S1346   1.801       .  S
S1345      H1348   1.407       .  S
S1346      H1347   1.406       .  S
C1351      C1352   1.400   1_455  A
C1352      C1353   1.395       .  A
C1352      H1361   1.084       .  S
C1353      C1354   1.418       .  A
C1353      S1357   1.802       .  S
C1355      C1356   1.397       .  A
C1355      H1362   1.083       .  S
C1356      S1358   1.805       .  S
S1357      H1360   1.407       .  S
S1358      H1359   1.406       .  S
C1363      C1368   1.418       .  A
C1364      C1365   1.398       .  A
C1364      H1373   1.078       .  S
C1365      C1366   1.414       .  A
C1365      S1369   1.790       .  S
C1367      C1368   1.405       .  A
C1367      H1374   1.084       .  S
C1368      S1370   1.803       .  S
S1369      H1372   1.405       .  S
S1370      H1371   1.405       .  S
C1375      C1376   1.405       .  A
C1375      C1380   1.412       .  A
C1376      C1377   1.410       .  A
C1376      H1385   1.084       .  S
C1377      C1378   1.421       .  A
C1377      S1381   1.802       .  S
C1378      C1379   1.403       .  A
C1379      C1380   1.385       .  A
S1381      H1384   1.394       .  S
S1382      H1383   1.403       .  S
O1387      C1395   1.275       .  A
O1387     Co1407   2.055       .  S
O1388      C1396   1.244   1_455  A
O1388     Co1408   2.000   1_565  S
O1389      C1397   1.288       .  A
O1389     Co1409   2.034       .  S
O1390      C1398   1.258       .  A
O1390     Co1410   1.947       .  S
O1393      C1396   1.247       .  A
O1393     Co1410   1.980       .  S
O1394      C1395   1.254       .  A
O1394     Co1409   1.959       .  S
C1395      C1546   1.488       .  S
C1396      C1582   1.459   1_655  S
C1398      C1594   1.481       .  S
O1401      C1414   1.257       .  A
O1401     Co1409   2.037       .  S
O1402      C1415   1.265       .  A
O1402     Co1410   1.983       .  S
O1403      C1415   1.273       .  A
O1403     Co1408   2.016   1_665  S
O1404      C1414   1.243       .  A
O1404     Co1407   1.955       .  S
O1405      C1412   1.257   1_565  A
O1405     Co1410   2.019       .  S
O1406      C1413   1.258       .  A
O1406     Co1409   2.031       .  S
C1413      C1573   1.478       .  S
C1414      C1609   1.485       .  S
C1415      C1525   1.481       .  S
O1416      C1424   1.255       .  A
O1416     Co1436   1.962       .  S
O1417      C1425   1.275       .  A
O1417     Co1437   1.994       .  S
O1418      C1426   1.301       .  A
O1418     Co1438   2.136       .  S
O1419      C1427   1.278       .  A
O1419     Co1439   2.051       .  S
O1420     Co1668   1.885       .  S
O1421      C1658   1.253   1_554  A
O1422      C1425   1.267       .  A
O1422     Co1439   1.996       .  S
O1423      C1424   1.266       .  A
O1423     Co1438   2.024       .  S
C1424      C1606   1.480       .  S
C1425      C1477   1.499       .  S
C1426      C1597   1.484       .  S
C1427      O1652   1.253       .  A
C1427      C1486   1.490       .  S
O1428     Co1667   2.035       .  S
O1429      C1673   1.295       .  A
O1430      C1443   1.271       .  A
O1430     Co1438   1.984   1_556  S
O1431      C1444   1.260       .  A
O1431     Co1439   1.962       .  S
O1432      C1444   1.269       .  A
O1432     Co1437   2.014       .  S
O1433      C1443   1.272   1_554  A
O1433     Co1436   2.006       .  S
O1434      C1441   1.255       .  A
O1434     Co1439   1.944       .  S
O1435      C1442   1.272       .  A
O1435     Co1438   1.895       .  S
Co1436     O1659   2.035   1_554  S
Co1437     O1651   1.885       .  S
Co1437     O1440   1.978       .  S
Co1439     O1440   2.026       .  S
C1441      C1570   1.488       .  S
C1442      O1660   1.295   1_554  A
C1442      C1729   1.486       .  S
C1443      C1513   1.468       .  S
C1444      C1585   1.487       .  S
O1445      C1453   1.251       .  A
O1445     Co1465   1.954       .  S
O1446      C1454   1.258       .  A
O1446     Co1466   1.871       .  S
O1447      C1455   1.284       .  A
O1447     Co1467   2.054       .  S
O1448      C1456   1.271       .  A
O1448     Co1468   2.024       .  S
O1449     Co1697   1.949       .  S
O1450      C1687   1.253   1_554  A
O1451      C1454   1.291       .  A
O1451     Co1468   2.106       .  S
O1452      C1453   1.267       .  A
O1452     Co1467   2.041       .  S
C1453      C1558   1.492       .  S
C1454      C1501   1.486       .  S
C1455      C1549   1.497       .  S
C1456      O1681   1.253       .  A
C1456      C1474   1.494       .  S
O1457     Co1696   2.025       .  S
O1458      C1702   1.258       .  A
O1459      C1472   1.254       .  A
O1459     Co1467   1.941   1_556  S
O1460      C1473   1.274       .  A
O1460     Co1468   1.918       .  S
O1461      C1473   1.290   1_545  A
O1461     Co1466   2.063   1_545  S
O1462      C1472   1.282   1_554  A
O1462     Co1465   2.052       .  S
O1463      C1470   1.272   1_545  A
O1463     Co1468   1.981   1_545  S
O1464      C1471   1.247   1_556  A
O1464     Co1467   1.970   1_556  S
Co1465     O1688   2.025   1_554  S
Co1465     O1700   1.998       .  S
Co1466     O1680   1.949       .  S
Co1467     O1700   2.055       .  S
O1469     Co1696   1.998       .  S
O1469     Co1698   2.055       .  S
C1470      C1522   1.481       .  S
C1471      O1689   1.258       .  A
C1471      C1510   1.468   1_554  S
C1472      C1489   1.473       .  S
C1473      C1537   1.485       .  S
C1474      C1475   1.398       .  A
C1474      C1710   1.423       .  A
C1475      C1476   1.398       .  A
C1475      H1484   1.080       .  S
C1476      C1477   1.427       .  A
C1476      S1480   1.804       .  S
C1477      C1709   1.404       .  A
C1478      C1708   1.404   1_554  A
C1478      C1479   1.405       .  A
C1478      H1485   1.084       .  S
C1479      C1705   1.423   1_554  A
C1479      S1481   1.804       .  S
S1480      H1483   1.408       .  S
S1481      H1482   1.404       .  S
C1486      C1487   1.404       .  A
C1486      C1722   1.420       .  A
C1487      C1488   1.404       .  A
C1487      H1496   1.084       .  S
C1488      C1720   1.421       .  A
C1488      S1492   1.808       .  S
C1489      C1719   1.421       .  A
C1489      C1490   1.399   1_556  A
C1490      C1491   1.395       .  A
C1490      H1497   1.085       .  S
C1491      C1717   1.420   1_554  A
C1491      S1493   1.805       .  S
S1492      H1495   1.400       .  S
S1493      H1494   1.408       .  S
C1498      C1673   1.486       .  S
C1498      C1499   1.407       .  A
C1498      C1734   1.415       .  A
C1499      C1500   1.409       .  A
C1499      H1508   1.083       .  S
C1500      C1501   1.418       .  A
C1500      S1504   1.797       .  S
C1501      C1733   1.400       .  A
C1502      C1732   1.400   1_554  A
C1502      C1503   1.382       .  A
C1502      H1509   1.084       .  S
C1503      C1729   1.415       .  A
C1503      S1505   1.792       .  S
S1504      H1507   1.404       .  S
S1505      H1506   1.402   1_554  S
C1510      C1742   1.404       .  A
C1510      C1515   1.408   1_556  A
C1511      C1741   1.404       .  A
C1511      C1512   1.405       .  A
C1511      H1520   1.084       .  S
C1512      C1744   1.412       .  A
C1512      S1516   1.799       .  S
C1513      C1743   1.412       .  A
C1513      C1514   1.401   1_556  A
C1514      C1515   1.393       .  A
C1514      H1521   1.084       .  S
C1515      S1517   1.800       .  S
S1516      H1519   1.405       .  S
S1517      H1518   1.406       .  S
C1522      C1527   1.417       .  A
C1523      C1524   1.398       .  A
C1523      H1532   1.078       .  S
C1524      S1528   1.792       .  S
C1525      C1526   1.401       .  A
C1526      C1527   1.403       .  A
C1526      H1533   1.084       .  S
C1527      S1529   1.796       .  S
S1528      H1531   1.406       .  S
S1529      H1530   1.396       .  S
C1534      C1535   1.412       .  A
C1535      C1536   1.401       .  A
C1535      H1544   1.084       .  S
C1536      C1537   1.411       .  A
C1536      S1540   1.799       .  S
C1538      C1539   1.396       .  A
C1538      H1545   1.084       .  S
C1539      S1541   1.793       .  S
S1540      H1543   1.407       .  S
S1541      H1542   1.406       .  S
C1546      C1551   1.417       .  A
C1547      C1548   1.403       .  A
C1547      H1556   1.078       .  S
C1548      S1552   1.802       .  S
C1549      C1550   1.402       .  A
C1550      C1551   1.400       .  A
C1550      H1557   1.084       .  S
C1551      S1553   1.795       .  S
S1552      H1555   1.408       .  S
S1553      H1554   1.405       .  S
C1558      C1563   1.418       .  A
C1559      C1560   1.387       .  A
C1559      H1568   1.084       .  S
C1560      S1564   1.789       .  S
C1561      C1562   1.410       .  A
C1562      C1563   1.415       .  A
C1562      H1569   1.083       .  S
C1563      S1565   1.800       .  S
S1564      H1567   1.406       .  S
S1565      H1566   1.407       .  S
C1570      C1575   1.413       .  A
C1571      C1572   1.399       .  A
C1571      H1580   1.083       .  S
C1572      C1573   1.401       .  A
C1572      S1576   1.789       .  S
C1574      C1575   1.395       .  A
C1574      H1581   1.083       .  S
C1575      S1577   1.801       .  S
S1576      H1579   1.407       .  S
S1577      H1578   1.406       .  S
C1582      C1583   1.400   1_455  A
C1583      C1584   1.395       .  A
C1583      H1592   1.084       .  S
C1584      C1585   1.418       .  A
C1584      S1588   1.802       .  S
C1586      C1587   1.397       .  A
C1586      H1593   1.083       .  S
C1587      S1589   1.805       .  S
S1588      H1591   1.407       .  S
S1589      H1590   1.406       .  S
C1594      C1599   1.418       .  A
C1595      C1596   1.398       .  A
C1595      H1604   1.078       .  S
C1596      C1597   1.414       .  A
C1596      S1600   1.790       .  S
C1598      C1599   1.405       .  A
C1598      H1605   1.084       .  S
C1599      S1601   1.803       .  S
S1600      H1603   1.405       .  S
S1601      H1602   1.405       .  S
C1606      C1607   1.405       .  A
C1606      C1611   1.412       .  A
C1607      C1608   1.410       .  A
C1607      H1616   1.084       .  S
C1608      C1609   1.421       .  A
C1608      S1612   1.802       .  S
C1609      C1610   1.403       .  A
C1610      C1611   1.385       .  A
S1612      H1615   1.394       .  S
S1613      H1614   1.403       .  S
O1618      C1626   1.275       .  A
O1618     Co1638   2.055       .  S
O1619      C1627   1.244   1_455  A
O1619     Co1639   2.000   1_565  S
O1620      C1628   1.288       .  A
O1620     Co1640   2.034       .  S
O1621      C1629   1.258       .  A
O1621     Co1641   1.947       .  S
O1624      C1627   1.247       .  A
O1624     Co1641   1.980       .  S
O1625      C1626   1.254       .  A
O1625     Co1640   1.959       .  S
C1626      C1777   1.488       .  S
C1627      C1813   1.459   1_655  S
C1629      C1825   1.481       .  S
O1632      C1645   1.257       .  A
O1632     Co1640   2.037       .  S
O1633      C1646   1.265       .  A
O1633     Co1641   1.983       .  S
O1634      C1646   1.273       .  A
O1634     Co1639   2.016   1_665  S
O1635      C1645   1.243       .  A
O1635     Co1638   1.955       .  S
O1636      C1643   1.257   1_565  A
O1636     Co1641   2.019       .  S
O1637      C1644   1.258       .  A
O1637     Co1640   2.031       .  S
C1644      C1804   1.478       .  S
C1645      C1840   1.485       .  S
C1646      C1756   1.481       .  S
O1647      C1655   1.255       .  A
O1647     Co1667   1.962       .  S
O1648      C1656   1.275   1_554  A
O1648     Co1668   1.994       .  S
O1649      C1657   1.301       .  A
O1649     Co1669   2.136       .  S
O1650      C1658   1.278       .  A
O1650     Co1670   2.051       .  S
O1653      C1656   1.267       .  A
O1653     Co1670   1.996       .  S
O1654      C1655   1.266       .  A
O1654     Co1669   2.024       .  S
C1655      C1837   1.480       .  S
C1656      C1708   1.499       .  S
C1657      C1828   1.484       .  S
C1658      C1717   1.490       .  S
O1661      C1674   1.271       .  A
O1661     Co1669   1.984       .  S
O1662      C1675   1.260       .  A
O1662     Co1670   1.962       .  S
O1663      C1675   1.269       .  A
O1663     Co1668   2.014   1_556  S
O1664      C1674   1.272       .  A
O1664     Co1667   2.006       .  S
O1665      C1672   1.255       .  A
O1665     Co1670   1.944       .  S
O1666      C1673   1.272       .  A
O1666     Co1669   1.895       .  S
Co1668     O1671   1.978   1_554  S
Co1670     O1671   2.026       .  S
C1672      C1801   1.488       .  S
C1674      C1744   1.468       .  S
C1675      C1816   1.487       .  S
O1676      C1684   1.251       .  A
O1676     Co1696   1.954       .  S
O1677      C1685   1.258   1_554  A
O1677     Co1697   1.871       .  S
O1678      C1686   1.284       .  A
O1678     Co1698   2.054       .  S
O1679      C1687   1.271       .  A
O1679     Co1699   2.024       .  S
O1682      C1685   1.291       .  A
O1682     Co1699   2.106       .  S
O1683      C1684   1.267       .  A
O1683     Co1698   2.041       .  S
C1684      C1789   1.492       .  S
C1685      C1732   1.486       .  S
C1686      C1780   1.497       .  S
C1687      C1705   1.494       .  S
O1690      C1703   1.254       .  A
O1690     Co1698   1.941       .  S
O1691      C1704   1.274       .  A
O1691     Co1699   1.918       .  S
O1692      C1704   1.290   1_545  A
O1692     Co1697   2.063   1_546  S
O1693      C1703   1.282       .  A
O1693     Co1696   2.052       .  S
O1694      C1701   1.272   1_545  A
O1694     Co1699   1.981   1_545  S
O1695      C1702   1.247       .  A
O1695     Co1698   1.970       .  S
C1701      C1753   1.481       .  S
C1702      C1741   1.468       .  S
C1703      C1720   1.473       .  S
C1704      C1768   1.485       .  S
C1705      C1706   1.398       .  A
C1706      C1707   1.398       .  A
C1706      H1715   1.080       .  S
C1707      C1708   1.427       .  A
C1707      S1711   1.804       .  S
C1709      C1710   1.405       .  A
C1709      H1716   1.084       .  S
C1710      S1712   1.804       .  S
S1711      H1714   1.408       .  S
S1712      H1713   1.404       .  S
C1717      C1718   1.404       .  A
C1718      C1719   1.404       .  A
C1718      H1727   1.084       .  S
C1719      S1723   1.808       .  S
C1720      C1721   1.399       .  A
C1721      C1722   1.395       .  A
C1721      H1728   1.085       .  S
C1722      S1724   1.805       .  S
S1723      H1726   1.400       .  S
S1724      H1725   1.408       .  S
C1729      C1730   1.407       .  A
C1730      C1731   1.409   1_554  A
C1730      H1739   1.083       .  S
C1731      C1732   1.418       .  A
C1731      S1735   1.797       .  S
C1733      C1734   1.382       .  A
C1733      H1740   1.084       .  S
C1734      S1736   1.792       .  S
S1735      H1738   1.404   1_556  S
S1736      H1737   1.402       .  S
C1741      C1746   1.408       .  A
C1742      C1743   1.405       .  A
C1742      H1751   1.084       .  S
C1743      S1747   1.799       .  S
C1744      C1745   1.401       .  A
C1745      C1746   1.393       .  A
C1745      H1752   1.084       .  S
C1746      S1748   1.800       .  S
S1747      H1750   1.405       .  S
S1748      H1749   1.406       .  S
C1753      C1758   1.417       .  A
C1754      C1755   1.398       .  A
C1754      H1763   1.078       .  S
C1755      S1759   1.792       .  S
C1756      C1757   1.401       .  A
C1757      C1758   1.403       .  A
C1757      H1764   1.084       .  S
C1758      S1760   1.796       .  S
S1759      H1762   1.406       .  S
S1760      H1761   1.396       .  S
C1765      C1766   1.412       .  A
C1766      C1767   1.401       .  A
C1766      H1775   1.084       .  S
C1767      C1768   1.411       .  A
C1767      S1771   1.799       .  S
C1769      C1770   1.396       .  A
C1769      H1776   1.084       .  S
C1770      S1772   1.793       .  S
S1771      H1774   1.407       .  S
S1772      H1773   1.406       .  S
C1777      C1782   1.417       .  A
C1778      C1779   1.403       .  A
C1778      H1787   1.079       .  S
C1779      S1783   1.802       .  S
C1780      C1781   1.402       .  A
C1781      C1782   1.400       .  A
C1781      H1788   1.084       .  S
C1782      S1784   1.795       .  S
S1783      H1786   1.408       .  S
S1784      H1785   1.405       .  S
C1789      C1794   1.418       .  A
C1790      C1791   1.387       .  A
C1790      H1799   1.084       .  S
C1791      S1795   1.789       .  S
C1792      C1793   1.410       .  A
C1793      C1794   1.415       .  A
C1793      H1800   1.083       .  S
C1794      S1796   1.800       .  S
S1795      H1798   1.406       .  S
S1796      H1797   1.407       .  S
C1801      C1806   1.413       .  A
C1802      C1803   1.399       .  A
C1802      H1811   1.083       .  S
C1803      C1804   1.401       .  A
C1803      S1807   1.789       .  S
C1805      C1806   1.395       .  A
C1805      H1812   1.083       .  S
C1806      S1808   1.801       .  S
S1807      H1810   1.407       .  S
S1808      H1809   1.406       .  S
C1813      C1814   1.400   1_455  A
C1814      C1815   1.395       .  A
C1814      H1823   1.084       .  S
C1815      C1816   1.418       .  A
C1815      S1819   1.802       .  S
C1817      C1818   1.397       .  A
C1817      H1824   1.083       .  S
C1818      S1820   1.805       .  S
S1819      H1822   1.407       .  S
S1820      H1821   1.406       .  S
C1825      C1830   1.418       .  A
C1826      C1827   1.398       .  A
C1826      H1835   1.078       .  S
C1827      C1828   1.414       .  A
C1827      S1831   1.790       .  S
C1829      C1830   1.405       .  A
C1829      H1836   1.084       .  S
C1830      S1832   1.803       .  S
S1831      H1834   1.405       .  S
S1832      H1833   1.405       .  S
C1837      C1838   1.405       .  A
C1837      C1842   1.412       .  A
C1838      C1839   1.410       .  A
C1838      H1847   1.084       .  S
C1839      C1840   1.421       .  A
C1839      S1843   1.802       .  S
C1840      C1841   1.403       .  A
C1841      C1842   1.385       .  A
S1843      H1846   1.394       .  S
S1844      H1845   1.403       .  S
