geometry optimzed in LAMMPS
_audit_creation_date              2020-11-30 
_audit_creation_method            'lammps2cif' 
_symmetry_space_group_name_H-M    'P1' 
_symmetry_Int_Tables_number       1 
_symmetry_cell_setting            triclinic 
loop_ 
_symmetry_equiv_pos_as_xyz 
  x,y,z 
_cell_length_a                    18.12738562 
_cell_length_b                    59.867149088982686 
_cell_length_c                    60.573325960777446 
_cell_angle_alpha                 89.79482370568351 
_cell_angle_beta                  89.40139447385977 
_cell_angle_gamma                 90.16714415756246 
loop_ 
_atom_site_label 
_atom_site_type_symbol 
_atom_site_fract_x 
_atom_site_fract_y 
_atom_site_fract_z 
_atom_site_charge 
C1          C  0.15670882  0.69056139  0.69645505     0.81300
N2          N  0.12283102  0.68295483  0.71523432    -0.77000
C3          C  0.11761245  0.69635298  0.73308075     0.83700
N4          N  0.14558910  0.71715776  0.73214116    -0.77000
C5          C  0.17927899  0.72497267  0.71375222     0.83800
N6          N  0.18470468  0.71176887  0.69556583    -0.78700
C7          C  0.07446429  0.68305344  0.83052695     0.81300
N8          N  0.05045974  0.70458723  0.83297789    -0.77000
C9          C  0.03773586  0.71717465  0.81460319     0.83700
N10         N  0.04972086  0.70830038  0.79445265    -0.77000
C11         C  0.07512768  0.68725939  0.79188406     0.83800
N12         N  0.08786879  0.67469481  0.80998787    -0.78700
C13         C  0.05815455  0.81869139  0.82502940     0.81300
N14         N  0.05027996  0.79753325  0.83324443    -0.77000
C15         C  0.04144213  0.77996549  0.81951982     0.83700
N16         N  0.04297282  0.78363466  0.79747721    -0.77000
C17         C  0.05195830  0.80435726  0.78880862     0.83800
N18         N  0.05923612  0.82219773  0.80263060    -0.78700
C19         C  0.03046241  0.83401179  0.69029649     0.81300
N20         N  0.01928170  0.81274429  0.68307686    -0.77000
C21         C  0.02170097  0.79535778  0.69737035     0.83700
N22         N  0.03396347  0.79946035  0.71898875    -0.77000
C23         C  0.04415260  0.82047000  0.72675047     0.83800
N24         N  0.04216077  0.83794153  0.71224864    -0.78700
N25         N  0.13454826  0.57664929  0.40185833    -0.26200
N26         N  0.16424211  0.57780864  0.38194232    -0.34100
C27         C  0.17653616  0.55664635  0.37483392     0.02100
C28         C  0.15337372  0.54194185  0.39149863     0.08100
C29         C  0.12765317  0.55536987  0.40819569    -0.05000
H30         H  0.20222881  0.55235005  0.35922868     0.08800
H31         H  0.10735414  0.55006330  0.42424778     0.10000
Cu32       Cu  0.18595969  0.60992185  0.36903615     0.44200
Cu33       Cu  0.11430376  0.60359867  0.42126671     0.42000
Cu34       Cu  0.19904852  0.65557523  0.41309737     0.50300
N35         N  0.19609688  0.64468676  0.36346039    -0.33600
N36         N  0.20162314  0.66062397  0.37858797    -0.27900
C37         C  0.20834475  0.68058076  0.36819485    -0.04000
C38         C  0.20662362  0.67715771  0.34557939     0.08200
C39         C  0.19861762  0.65425475  0.34330742     0.02000
H40         H  0.21426676  0.69643184  0.37651557     0.09700
H41         H  0.19582415  0.64509361  0.32797535     0.08800
N42         N  0.18014503  0.64248643  0.44496336    -0.35100
N43         N  0.14608544  0.62307059  0.44689240    -0.27300
C44         C  0.14315209  0.61677215  0.46803807    -0.02500
C45         C  0.97684041  0.64214126  0.48010361     0.06100
C46         C  0.98821691  0.65620160  0.46206159     0.04200
H47         H  0.12077714  0.60099877  0.47382407     0.09300
H48         H  0.00826169  0.67322832  0.46239673     0.08200
N49         N  0.16481400  0.44590937  0.40090375    -0.26200
N50         N  0.16640552  0.44151666  0.37955684    -0.34100
C51         C  0.17254438  0.46088464  0.36820673     0.02100
C52         C  0.17460256  0.47833097  0.38316412     0.08100
C53         C  0.16998614  0.46807473  0.40375312    -0.05000
H54         H  0.17359648  0.46220626  0.35039302     0.08800
H55         H  0.16895118  0.47600572  0.41975233     0.10000
Cu56       Cu  0.15652875  0.40916368  0.36773522     0.44200
Cu57       Cu  0.15028215  0.42185989  0.42542194     0.42000
Cu58       Cu  0.11684692  0.36511807  0.40970989     0.43900
N59         N  0.14036264  0.37558403  0.36075870    -0.33600
N60         N  0.12610529  0.35985249  0.37565758    -0.27900
C61         C  0.11732649  0.34025986  0.36516934    -0.04000
C62         C  0.12648811  0.34381694  0.34270222     0.08200
C63         C  0.14100394  0.36637623  0.34051391     0.02000
H64         H  0.10415527  0.32460785  0.37329832     0.09700
H65         H  0.15043624  0.37552476  0.32530706     0.08800
N66         N  0.10899353  0.37589170  0.44244498    -0.35100
N67         N  0.12122667  0.39692580  0.44788607    -0.27300
C68         C  0.11013966  0.39933378  0.46970623    -0.02500
C69         C  0.08989128  0.37881854  0.47865362     0.06100
C70         C  0.09032774  0.36428218  0.46086049     0.04200
H71         H  0.11639295  0.41497572  0.47837286     0.09300
H72         H  0.07650571  0.34669567  0.46120639     0.08200
N73         N  0.17734241  0.57268677  0.62030480    -0.26200
N74         N  0.15997439  0.57791881  0.64083794    -0.34100
C75         C  0.14044916  0.55927241  0.65196096     0.02100
C76         C  0.14490514  0.54147393  0.63755621     0.08100
C77         C  0.16879219  0.55059624  0.61763958    -0.05000
H78         H  0.12163677  0.55885414  0.66896389     0.08800
H79         H  0.17788294  0.54195114  0.60220676     0.10000
Cu80       Cu  0.16021309  0.61058840  0.65127338     0.44200
Cu81       Cu  0.20638868  0.59641877  0.59679405     0.42000
Cu82       Cu  0.20039893  0.65562747  0.61099783     0.43900
N83         N  0.16511982  0.64413100  0.65854520    -0.33600
N84         N  0.18091384  0.66057177  0.64459310    -0.27900
C85         C  0.18088579  0.68000225  0.65581618    -0.04000
C86         C  0.16366488  0.67534192  0.67767991     0.08200
C87         C  0.15393873  0.65255034  0.67873259     0.02000
H88         H  0.19198634  0.69623060  0.64858783     0.09700
H89         H  0.14059144  0.64266482  0.69322783     0.08800
N90         N  0.21147214  0.64382522  0.57881909    -0.35100
N91         N  0.21466694  0.62230257  0.57409077    -0.27300
C92         C  0.21830727  0.61982873  0.55212147    -0.02500
C93         C  0.01225904  0.63101861  0.54192825     0.06100
C94         C  0.00226609  0.64857734  0.55672762     0.04200
H95         H  0.21962571  0.60377966  0.54400796     0.09300
H96         H  0.99117603  0.66585023  0.55270486     0.08200
N97         N  0.03428741  0.44906125  0.61723236    -0.26200
N98         N  0.06426178  0.44648093  0.63680857    -0.34100
C99         C  0.08799614  0.46657799  0.64391496     0.02100
C100        C  0.07280441  0.48222987  0.62759811     0.08100
C101        C  0.03925985  0.47046703  0.61101290    -0.05000
H102        H  0.11781032  0.46929744  0.65904882     0.08800
H103        H  0.02206905  0.47685198  0.59515053     0.10000
Cu104      Cu  0.07558988  0.41462919  0.64996675     0.44200
Cu105      Cu  0.99740990  0.42329225  0.59825721     0.42000
Cu106      Cu  0.05603933  0.36823541  0.60775297     0.43900
N107        N  0.07397835  0.38057128  0.65684739    -0.33600
N108        N  0.06587861  0.36413664  0.64239907    -0.27900
C109        C  0.06217885  0.34466943  0.65369620    -0.04000
C110        C  0.06885263  0.34907528  0.67609295     0.08200
C111        C  0.07631158  0.37195970  0.67737516     0.02000
H112        H  0.05370113  0.32850279  0.64619984     0.09700
H113        H  0.08032298  0.38180551  0.69225752     0.08800
N114        N  0.03699863  0.38053254  0.57551293    -0.35100
N115        N  0.01163963  0.40103347  0.57316113    -0.27300
C116        C  0.00792313  0.40633117  0.55175292    -0.02500
C117        C  0.03199313  0.38845717  0.53949127     0.06100
C118        C  0.05010342  0.37213015  0.55505543     0.04200
H119        H  0.99318819  0.42268886  0.54557843     0.09300
H120        H  0.07453056  0.35599796  0.55180673     0.08200
N121        N  0.15023316  0.95090627  0.40266508    -0.26200
N122        N  0.18168802  0.94811392  0.38314543    -0.34100
C123        C  0.20035872  0.96846826  0.37497011     0.02100
C124        C  0.17965988  0.98446200  0.39048363     0.08100
C125        C  0.14817837  0.97261575  0.40763132    -0.05000
H126        H  0.23028864  0.97127308  0.35966553     0.08800
H127        H  0.12883899  0.97921338  0.42325475     0.10000
Cu128      Cu  0.20044862  0.91557420  0.37183679     0.44200
Cu129      Cu  0.12278642  0.92554201  0.42381368     0.42000
Cu130      Cu  0.18069296  0.87045613  0.41649341     0.43900
N131        N  0.20832493  0.88091035  0.36720660    -0.33600
N132        N  0.20098976  0.86521348  0.38264442    -0.27900
C133        C  0.20947571  0.84505533  0.37310325    -0.04000
C134        C  0.22295156  0.84809537  0.35075349     0.08200
C135        C  0.22177393  0.87099528  0.34764197     0.02000
H136        H  0.20667868  0.82929808  0.38187251     0.09700
H137        H  0.23039549  0.87986922  0.33223759     0.08800
N138        N  0.15776380  0.88325119  0.44803315    -0.35100
N139        N  0.13506608  0.90408558  0.44978282    -0.27300
C140        C  0.12822486  0.90959205  0.47105694    -0.02500
C141        C  0.14672123  0.89139747  0.48373400     0.06100
C142        C  0.16536040  0.87474760  0.46865326     0.04200
H143        H  0.11319463  0.92604089  0.47689853     0.09300
H144        H  0.18573392  0.85820604  0.47234799     0.08200
N145        N  0.07135648  0.07762870  0.39696547    -0.26200
N146        N  0.05044467  0.08063038  0.37643305    -0.34100
C147        C  0.03239327  0.06052878  0.36783082     0.02100
C148        C  0.04250064  0.04446182  0.38419148     0.08100
C149        C  0.06693307  0.05601425  0.40229083    -0.05000
H150        H  0.01079299  0.05796916  0.35145384     0.08800
H151        H  0.07877435  0.04925834  0.41846079     0.10000
Cu152      Cu  0.04644900  0.11337238  0.36480513     0.44200
Cu153      Cu  0.09883977  0.10326785  0.41724672     0.42000
Cu154      Cu  0.07899088  0.16111729  0.40650332     0.43900
N155        N  0.04791312  0.14770334  0.35864622    -0.33600
N156        N  0.05917993  0.16442550  0.37259086    -0.27900
C157        C  0.05482955  0.18388974  0.36131707    -0.04000
C158        C  0.04001539  0.17910131  0.33946248     0.08200
C159        C  0.03606810  0.15613288  0.33847899     0.02000
H160        H  0.06116596  0.20026695  0.36855406     0.09700
H161        H  0.02472960  0.14612592  0.32406131     0.08800
N162        N  0.10035452  0.14873660  0.43813153    -0.35100
N163        N  0.10886227  0.12702871  0.44091853    -0.27300
C164        C  0.12321127  0.12254889  0.46199447    -0.02500
C165        C  0.12384207  0.14224168  0.47344791     0.06100
C166        C  0.10882677  0.15879644  0.45795198     0.04200
H167        H  0.13217436  0.10594972  0.46855538     0.09300
H168        H  0.10545690  0.17659513  0.46076083     0.08200
N169        N  0.22162519  0.94556289  0.62516624    -0.26200
N170        N  0.22402824  0.94115907  0.64650706    -0.34100
C171        C  0.04849529  0.97174403  0.64990169     0.02100
C172        C  0.05207861  0.98882540  0.63441895     0.08100
C173        C  0.04079641  0.97853297  0.61431993    -0.05000
H174        H  0.05572216  0.97323107  0.66753819     0.08800
H175        H  0.03893662  0.98634946  0.59821446     0.10000
Cu176      Cu  0.21711527  0.90881543  0.65821714     0.44200
Cu177      Cu  0.20754641  0.92189792  0.60098195     0.42000
Cu178      Cu  0.20052392  0.86465417  0.61441607     0.43900
N179        N  0.21999371  0.87475135  0.66364500    -0.33600
N180        N  0.21376261  0.85919946  0.64824443    -0.27900
C181        C  0.21834175  0.83905712  0.65793983    -0.04000
C182        C  0.22819020  0.84206987  0.68034090     0.08200
C183        C  0.22916257  0.86486183  0.68340696     0.02000
H184        H  0.21529240  0.82333056  0.64924872     0.09700
H185        H  0.23590747  0.87366251  0.69882420     0.08800
N186        N  0.19163029  0.87592685  0.58190857    -0.35100
N187        N  0.19429966  0.89750169  0.57746887    -0.27300
C188        C  0.18763041  0.90070237  0.55569416    -0.02500
C189        C  0.17998252  0.88009253  0.54560546     0.06100
C190        C  0.18323290  0.86468239  0.56277913     0.04200
H191        H  0.18895464  0.91698270  0.54792831     0.09300
H192        H  0.17943067  0.84670388  0.56146070     0.08200
N193        N  0.12055610  0.08458719  0.61090389    -0.26200
N194        N  0.09055659  0.08609176  0.63080446    -0.34100
C195        C  0.07873084  0.06526784  0.63874254     0.02100
C196        C  0.10239636  0.05014702  0.62285586     0.08100
C197        C  0.12849294  0.06303201  0.60556521    -0.05000
H198        H  0.05216635  0.06149811  0.65439092     0.08800
H199        H  0.14884590  0.05715691  0.58977102     0.10000
Cu200      Cu  0.06353983  0.11695670  0.64437041     0.44200
Cu201      Cu  0.14107425  0.11133715  0.59030071     0.42000
Cu202      Cu  0.07155696  0.16425766  0.60339485     0.43900
N203        N  0.04624004  0.15058139  0.65153331    -0.33600
N204        N  0.05000557  0.16704646  0.63687069    -0.27900
C205        C  0.03794399  0.18650756  0.64713143    -0.04000
C206        C  0.02561099  0.18224749  0.66922637     0.08200
C207        C  0.03101599  0.15932457  0.67153518     0.02000
H208        H  0.03782912  0.20262455  0.63899392     0.09700
H209        H  0.02491757  0.14972475  0.68661079     0.08800
N210        N  0.10302294  0.15627024  0.57153167    -0.35100
N211        N  0.13078189  0.13642233  0.56725334    -0.27300
C212        C  0.14374201  0.13465219  0.54557902    -0.02500
C213        C  0.12330705  0.15448105  0.53540874     0.06100
C214        C  0.09751650  0.16784559  0.55246487     0.04200
H215        H  0.16359741  0.11949072  0.53798537     0.09300
H216        H  0.07400141  0.18436618  0.55101985     0.08200
C217        C  0.13270284  0.32334277  0.82940221     0.81300
N218        N  0.94351264  0.30042769  0.83553416    -0.77000
C219        C  0.92420807  0.28404273  0.82132347     0.83700
N220        N  0.89604575  0.28982799  0.80151772    -0.77000
C221        C  0.08777224  0.31344342  0.79434335     0.83800
N222        N  0.10645395  0.32953131  0.80915299    -0.78700
C223        C  0.05984845  0.33334834  0.69479482     0.81300
N224        N  0.03312828  0.31237660  0.69102940    -0.77000
C225        C  0.01873175  0.29854998  0.70835007     0.83700
N226        N  0.03166292  0.30556775  0.72905529    -0.77000
C227        C  0.05977108  0.32603157  0.73326618     0.83800
N228        N  0.07400675  0.34008767  0.71597260    -0.78700
C229        C  0.98282069  0.18662105  0.81964387     0.81300
N230        N  0.98445446  0.18042797  0.79794133    -0.77000
C231        C  0.96094387  0.19475281  0.78212016     0.83700
N232        N  0.93663402  0.21514990  0.78819024    -0.77000
C233        C  0.93602915  0.22182971  0.80939439     0.83800
N234        N  0.95936526  0.20756563  0.82541117    -0.78700
C235        C  0.00875075  0.19899871  0.68608763     0.81300
N236        N  0.01508557  0.22107517  0.68071926    -0.77000
C237        C  0.99628608  0.23694402  0.69559219     0.83700
N238        N  0.97112566  0.23051661  0.71572886    -0.77000
C239        C  0.96566783  0.20875470  0.72146206     0.83800
N240        N  0.98493023  0.19274640  0.70666627    -0.78700
N241        N  0.12799191  0.56801633  0.13295661    -0.26200
N242        N  0.14995393  0.57371193  0.15284055    -0.34100
C243        C  0.16944226  0.55499919  0.16386925     0.02100
C244        C  0.16014944  0.53688875  0.14987463     0.08100
C245        C  0.13354696  0.54590734  0.13050560    -0.05000
H246        H  0.19171112  0.55469807  0.18036317     0.08800
H247        H  0.12030411  0.53714837  0.11546470     0.10000
Cu248      Cu  0.15448526  0.60737934  0.16133672     0.44200
Cu249      Cu  0.09715336  0.59031634  0.10913456     0.42000
Cu250      Cu  0.12326346  0.64825427  0.11384162     0.43900
N251        N  0.15154012  0.64216392  0.16345215    -0.33600
N252        N  0.13995097  0.65641930  0.14701511    -0.27900
C253        C  0.14166891  0.67734239  0.15507291    -0.04000
C254        C  0.15520529  0.67624604  0.17747156     0.08200
C255        C  0.16128273  0.65375169  0.18219592     0.02000
H256        H  0.13449602  0.69229069  0.14524929     0.09700
H257        H  0.17234119  0.64629501  0.19811152     0.08800
N258        N  0.10611232  0.63307752  0.08329076    -0.35100
N259        N  0.09467692  0.61132536  0.08246470    -0.27300
C260        C  0.08818837  0.60490570  0.06147281    -0.02500
C261        C  0.09586192  0.62337889  0.04809222     0.06100
C262        C  0.10721986  0.64118736  0.06239743     0.04200
H263        H  0.08128017  0.58776082  0.05626996     0.09300
H264        H  0.11779448  0.65842983  0.05798490     0.08200
N265        N  0.24709853  0.44394015  0.12255667    -0.26200
N266        N  0.21945604  0.44056553  0.14255632    -0.34100
C267        C  0.20258675  0.46056606  0.15155723     0.02100
C268        C  0.22033676  0.47706618  0.13620416     0.08100
C269        C  0.24793840  0.46584876  0.11813755    -0.05000
H270        H  0.17596095  0.46279687  0.16745689     0.08800
H271        H  0.26502220  0.47306501  0.10249051     0.10000
Cu272      Cu  0.20122108  0.40829107  0.15437838     0.44200
Cu273      Cu  0.07504824  0.41812556  0.10141561     0.42000
Cu274      Cu  0.02216535  0.36330404  0.11060988     0.43900
N275        N  0.99706584  0.37256327  0.16035975    -0.33600
N276        N  0.00335817  0.35752334  0.14438677    -0.27900
C277        C  0.99665795  0.33701830  0.15325750    -0.04000
C278        C  0.98518311  0.33892943  0.17576729     0.08200
C279        C  0.98574417  0.36171959  0.17975023     0.02000
H280        H  0.00014628  0.32169291  0.14389820     0.09700
H281        H  0.17484975  0.37121079  0.19391793     0.08800
N282        N  0.05194534  0.37426861  0.07888092    -0.35100
N283        N  0.07482852  0.39505783  0.07636198    -0.27300
C284        C  0.09097746  0.39892717  0.05508882    -0.02500
C285        C  0.07717511  0.37977617  0.04325190     0.06100
C286        C  0.05215609  0.36426451  0.05883549     0.04200
H287        H  0.10876350  0.41491583  0.04852749     0.09300
H288        H  0.03477768  0.34725768  0.05583329     0.08200
N289        N  0.15944618  0.56745765  0.90718973    -0.26200
N290        N  0.14706322  0.57161233  0.88616264    -0.34100
C291        C  0.15296681  0.55243251  0.87467514     0.02100
C292        C  0.17031477  0.53538734  0.88924623     0.08100
C293        C  0.17379541  0.54562226  0.90975861    -0.05000
H294        H  0.14469927  0.55096637  0.85708007     0.08800
H295        H  0.18443684  0.53785079  0.92553622     0.10000
Cu296      Cu  0.12201921  0.60364827  0.87559896     0.44200
Cu297      Cu  0.15235078  0.59189027  0.93123975     0.42000
Cu298      Cu  0.09926345  0.64890356  0.91704749     0.43900
N299        N  0.10249551  0.63704433  0.86856311    -0.33600
N300        N  0.09341543  0.65340622  0.88299349    -0.27900
C301        C  0.08178129  0.67265237  0.87188213    -0.04000
C302        C  0.08430682  0.66805538  0.84951120     0.08200
C303        C  0.09749134  0.64541216  0.84810354     0.02000
H304        H  0.07283108  0.68874036  0.87951017     0.09700
H305        H  0.10287108  0.63560733  0.83320571     0.08800
N306        N  0.11410282  0.63778236  0.94931279    -0.35100
N307        N  0.13329476  0.61702215  0.95400920    -0.27300
C308        C  0.13621734  0.61453029  0.97596952    -0.02500
C309        C  0.11776525  0.63463272  0.98580503     0.06100
C310        C  0.10478145  0.64910561  0.96837621     0.04200
H311        H  0.15028165  0.59902220  0.98407827     0.09300
H312        H  0.08770654  0.66636668  0.96947462     0.08200
N313        N  0.02111281  0.43855748  0.90617991    -0.26200
N314        N  0.99610940  0.43722169  0.88582249    -0.34100
C315        C  0.18834753  0.45826388  0.88015224     0.02100
C316        C  0.21241355  0.47269677  0.89661207     0.08100
C317        C  0.24074627  0.45905928  0.91270141    -0.05000
H318        H  0.16097938  0.46275439  0.86499784     0.08800
H319        H  0.26298280  0.46417135  0.92841125     0.10000
Cu320      Cu  0.97605617  0.40584950  0.87165874     0.44200
Cu321      Cu  0.04086558  0.41205231  0.92673198     0.42000
Cu322      Cu  0.99756794  0.35785467  0.91285182     0.43900
N323        N  0.96670722  0.37160519  0.86451642    -0.33600
N324        N  0.97523791  0.35514020  0.87901778    -0.27900
C325        C  0.96634501  0.33553786  0.86862610    -0.04000
C326        C  0.95105351  0.33957097  0.84666034     0.08200
C327        C  0.95160196  0.36263258  0.84460562     0.02000
H328        H  0.96986691  0.31939793  0.87662970     0.09700
H329        H  0.94164897  0.37220062  0.82975578     0.08800
N330        N  0.02530960  0.36606793  0.94534021    -0.35100
N331        N  0.04337391  0.38689739  0.94971925    -0.27300
C332        C  0.05772242  0.38900217  0.97122592    -0.02500
C333        C  0.04857837  0.36838142  0.98135412     0.06100
C334        C  0.02733508  0.35415720  0.96437591     0.04200
H335        H  0.07087006  0.40476054  0.97892048     0.09300
H336        H  0.01329423  0.33664042  0.96584924     0.08200
C337        C  0.21566198  0.69359414  0.32732193     0.81300
N338        N  0.20730454  0.68640284  0.30609058    -0.77000
C339        C  0.22048159  0.70046124  0.28886752     0.83700
N340        N  0.24141947  0.72169731  0.29305209    -0.77000
C341        C  0.24837064  0.72946565  0.31381743     0.83800
N342        N  0.23535864  0.71539117  0.33125550    -0.78700
C343        C  0.16557889  0.69503519  0.19271851     0.81300
N344        N  0.15215494  0.71637211  0.18574870    -0.77000
C345        C  0.16574758  0.73384940  0.19935767     0.83700
N346        N  0.19275018  0.72970302  0.21970815    -0.77000
C347        C  0.20480029  0.70876604  0.22704375     0.83800
N348        N  0.19100375  0.69120450  0.21356678    -0.78700
C349        C  0.04040329  0.82565548  0.33135351     0.81300
N350        N  0.23644594  0.80868052  0.33978243    -0.77000
C351        C  0.05508201  0.78709304  0.32431780     0.83700
N352        N  0.07699148  0.79232642  0.30351908    -0.77000
C353        C  0.07988176  0.81359698  0.29612076     0.83800
N354        N  0.06161847  0.83048628  0.31006975    -0.78700
C355        C  0.08714847  0.82991271  0.19529006     0.81300
N356        N  0.07762559  0.83738554  0.21653794    -0.77000
C357        C  0.09732560  0.82424667  0.23389028     0.83700
N358        N  0.12578368  0.80388832  0.22965307    -0.77000
C359        C  0.13413798  0.79603238  0.20897987     0.83800
N360        N  0.11462984  0.80899252  0.19153719    -0.78700
C361        C  0.11762110  0.32727951  0.32499443     0.81300
N362        N  0.09787875  0.30594679  0.33038132    -0.77000
C363        C  0.08631103  0.29070055  0.31431225     0.83700
N364        N  0.09568307  0.29690415  0.29291290    -0.77000
C365        C  0.11623082  0.31794321  0.28711609     0.83800
N366        N  0.12742260  0.33323464  0.30332717    -0.78700
C367        C  0.17077136  0.32172694  0.18972013     0.81300
N368        N  0.14902822  0.32496600  0.21122760    -0.77000
C369        C  0.14109085  0.30692102  0.22488773     0.83700
N370        N  0.15653262  0.28631515  0.21712085    -0.77000
C371        C  0.17939513  0.28305943  0.19607213     0.83800
N372        N  0.18519728  0.30073076  0.18224934    -0.78700
C373        C  0.02651631  0.19431543  0.32083001     0.81300
N374        N  0.03701084  0.21690882  0.32250989    -0.77000
C375        C  0.02217989  0.23024411  0.30479445     0.83700
N376        N  0.99676464  0.22100299  0.28605720    -0.77000
C377        C  0.98750151  0.19876999  0.28418420     0.83800
N378        N  0.00286993  0.18532571  0.30148901    -0.78700
C379        C  0.00374345  0.18398314  0.18813190     0.81300
N380        N  0.01225400  0.20664805  0.18595294    -0.77000
C381        C  0.02186397  0.21930569  0.20437269     0.83700
N382        N  0.02146911  0.20941677  0.22435904    -0.77000
C383        C  0.01131330  0.18723770  0.22676701     0.83800
N384        N  0.00290059  0.17437975  0.20862862    -0.78700
N385        N  0.96828013  0.94205312  0.11854207    -0.26200
N386        N  0.98071998  0.93930523  0.13973877    -0.34100
C387        C  0.97567694  0.95934925  0.14980558     0.02100
C388        C  0.95912503  0.97537196  0.13394477     0.08100
C389        C  0.95509995  0.96361131  0.11431374    -0.05000
H390        H  0.98525941  0.96216362  0.16717034     0.08800
H391        H  0.94586311  0.97009601  0.09791049     0.10000
Cu392      Cu  0.00784728  0.90762359  0.15109214     0.44200
Cu393      Cu  0.97720058  0.91660509  0.09621193     0.42000
Cu394      Cu  0.04516218  0.86210010  0.10784697     0.43900
N395        N  0.03829541  0.87472092  0.15729335    -0.33600
N396        N  0.05186067  0.85865336  0.14273493    -0.27900
C397        C  0.07083781  0.84003197  0.15402317    -0.04000
C398        C  0.06881500  0.84465948  0.17649911     0.08200
C399        C  0.04806386  0.86673486  0.17781492     0.02000
H400        H  0.08534789  0.82429177  0.14644011     0.09700
H401        H  0.04089624  0.87646004  0.19269820     0.08800
N402        N  0.03213343  0.87405393  0.07509310    -0.35100
N403        N  0.00645672  0.89444935  0.07205702    -0.27300
C404        C  0.00608795  0.89940063  0.05055548    -0.02500
C405        C  0.03205974  0.88140908  0.03886684     0.06100
C406        C  0.04838464  0.86535022  0.05490569     0.04200
H407        H  0.98940516  0.91537891  0.04388472     0.09300
H408        H  0.07265303  0.84909872  0.05217293     0.08200
N409        N  0.94467777  0.07178576  0.10536557    -0.26200
N410        N  0.95350242  0.07378620  0.12684827    -0.34100
C411        C  0.95115044  0.05318912  0.13610142     0.02100
C412        C  0.93981615  0.03776476  0.11934424     0.08100
C413        C  0.93592870  0.05023202  0.10024217    -0.05000
H414        H  0.95774068  0.04974819  0.15350849     0.08800
H415        H  0.92924685  0.04400529  0.08363228     0.10000
Cu416      Cu  0.96904007  0.10547983  0.14019399     0.44200
Cu417      Cu  0.95043400  0.09815147  0.08366521     0.42000
Cu418      Cu  0.98909764  0.15411677  0.09995120     0.43900
N419        N  0.98201442  0.13912623  0.14831389    -0.33600
N420        N  0.98899049  0.15631936  0.13454035    -0.27900
C421        C  0.99699276  0.17515410  0.14650385    -0.04000
C422        C  0.99496249  0.16950919  0.16869540     0.08200
C423        C  0.98535722  0.14662449  0.16914247     0.02000
H424        H  0.00444737  0.19168358  0.13954704     0.09700
H425        H  0.98163469  0.13605412  0.18363867     0.08800
N426        N  0.18750020  0.14414774  0.07245459    -0.35100
N427        N  0.17724584  0.12308713  0.06677786    -0.27300
C428        C  0.18301689  0.12120222  0.04476336    -0.02500
C429        C  0.19773887  0.14209657  0.03581356     0.06100
C430        C  0.19956443  0.15633230  0.05389369     0.04200
H431        H  0.17754291  0.10559848  0.03598021     0.09300
H432        H  0.21120861  0.17406056  0.05361146     0.08200
N433        N  0.11836450  0.93890616  0.89857359    -0.26200
N434        N  0.10927404  0.93650804  0.87706946    -0.34100
C435        C  0.11344159  0.95699345  0.86747628     0.02100
C436        C  0.12650574  0.97266985  0.88392623     0.08100
C437        C  0.12939687  0.96048549  0.90319794    -0.05000
H438        H  0.10782620  0.96018536  0.84998924     0.08800
H439        H  0.13746596  0.96695794  0.91965687     0.10000
Cu440      Cu  0.09249580  0.90468156  0.86325798     0.44200
Cu441      Cu  0.11218502  0.91390893  0.92210610     0.42000
Cu442      Cu  0.07533450  0.85958148  0.90714194     0.43900
N443        N  0.07932225  0.87024357  0.85722899    -0.33600
N444        N  0.07346434  0.85485627  0.87298547    -0.27900
C445        C  0.06561413  0.83472759  0.86363246    -0.04000
C446        C  0.06634644  0.83718369  0.84095536     0.08200
C447        C  0.07528037  0.85995891  0.83739482     0.02000
H448        H  0.05950396  0.81928337  0.87280932     0.09700
H449        H  0.07840105  0.86842207  0.82160462     0.08800
N450        N  0.07997679  0.86845325  0.94039387    -0.35100
N451        N  0.09422836  0.88936030  0.94562106    -0.27300
C452        C  0.09246182  0.89154216  0.96764746    -0.02500
C453        C  0.07600245  0.87091611  0.97705861     0.06100
C454        C  0.06897014  0.85656962  0.95918646     0.04200
H455        H  0.10192698  0.90715128  0.97610153     0.09300
H456        H  0.05497834  0.83900136  0.95979767     0.08200
N457        N  0.10759220  0.06850288  0.88791693    -0.26200
N458        N  0.08809246  0.07214355  0.86731023    -0.34100
C459        C  0.08873319  0.05243658  0.85643980     0.02100
C460        C  0.11003193  0.03569698  0.87104568     0.08100
C461        C  0.12125495  0.04672592  0.89084186    -0.05000
H462        H  0.07308478  0.05032952  0.83938995     0.08800
H463        H  0.13552984  0.03955360  0.90661493     0.10000
Cu464      Cu  0.05905614  0.10441327  0.85731278     0.44200
Cu465      Cu  0.10729529  0.09272297  0.91199206     0.42000
Cu466      Cu  0.03814835  0.14758615  0.90251058     0.43900
N467        N  0.03312788  0.13822315  0.85292452    -0.33600
N468        N  0.02538858  0.15342692  0.86866767    -0.27900
C469        C  0.00748793  0.17312197  0.85927770    -0.04000
C470        C  0.00399658  0.17022428  0.83665954     0.08200
C471        C  0.02060280  0.14795754  0.83327522     0.02000
H472        H  0.99721485  0.18838360  0.86829372     0.09700
H473        H  0.02258111  0.13932943  0.81761997     0.08800
N474        N  0.05607667  0.13504045  0.93425479    -0.35100
N475        N  0.08271680  0.11472761  0.93707158    -0.27300
C476        C  0.08522671  0.11002232  0.95866880    -0.02500
C477        C  0.05917850  0.12814536  0.97030006     0.06100
C478        C  0.04102154  0.14388735  0.95432902     0.04200
H479        H  0.10220441  0.09411212  0.96542240     0.09300
H480        H  0.01602437  0.16004513  0.95701248     0.08200
C481        C  0.13488548  0.99724239  0.88339201    -0.15400
C482        C  0.11137239  0.01106593  0.86737278    -0.30600
H483        H  0.15723099  0.00431465  0.89835128     0.13600
H484        H  0.08864564  0.00431317  0.85228109     0.14200
C485        C  0.21346986  0.14738419  0.01216069    -0.15400
C486        C  0.04459963  0.12757199  0.99431203    -0.30600
H487        H  0.01550563  0.16135563  0.99972075     0.13600
H488        H  0.25097598  0.11500850  0.00567569     0.14200
C489        C  0.04551413  0.88275190  0.01473456    -0.15400
C490        C  0.06372846  0.86601284  0.00099382    -0.30600
H491        H  0.03746780  0.89927153  0.00773429     0.13600
H492        H  0.06742230  0.84898044  0.00706771     0.14200
C493        C  0.93644802  0.01315619  0.11962876    -0.15400
C494        C  0.95453724  0.99998375  0.13675436    -0.30600
H495        H  0.92138164  0.00562452  0.10407021     0.13600
H496        H  0.96929489  0.00727467  0.15248952     0.14200
C497        C  0.00408609  0.17849834  0.24942553    -0.15400
C498        C  0.96088148  0.19040226  0.26306571    -0.30600
H499        H  0.04815356  0.16818983  0.25585987     0.13600
H500        H  0.92075905  0.20140074  0.25542773     0.14200
C501        C  0.02861594  0.24378216  0.20461620    -0.15400
C502        C  0.00111824  0.25811325  0.18979262    -0.30600
H503        H  0.04735196  0.25054389  0.22026022     0.13600
H504        H  0.17082726  0.25311148  0.17464936     0.14200
C505        C  0.06555379  0.26727064  0.31970272    -0.15400
C506        C  0.03761780  0.25438689  0.30373370    -0.30600
H507        H  0.07463886  0.26060603  0.33613835     0.13600
H508        H  0.02678649  0.26196699  0.28775235     0.14200
C509        C  0.13073026  0.32320899  0.26330818    -0.15400
C510        C  0.11342641  0.30791145  0.24789747    -0.30600
H511        H  0.16079845  0.33826613  0.25874357     0.13600
H512        H  0.08489587  0.29279299  0.25317513     0.14200
C513        C  0.10868472  0.81669303  0.27341908    -0.15400
C514        C  0.08248892  0.83031946  0.25747722    -0.30600
H515        H  0.14626626  0.80344200  0.26859366     0.13600
H516        H  0.04391602  0.84356422  0.26147351     0.14200
C517        C  0.14679591  0.75726440  0.19332278    -0.15400
C518        C  0.16652741  0.77366582  0.20721492    -0.30600
H519        H  0.11102634  0.76063760  0.17945144     0.13600
H520        H  0.20076019  0.76946098  0.22122434     0.14200
C521        C  0.27183913  0.75312014  0.31561867    -0.15400
C522        C  0.24542514  0.76838020  0.32994487    -0.30600
H523        H  0.30376694  0.75911884  0.30149624     0.13600
H524        H  0.21254668  0.76314462  0.34413284     0.14200
C525        C  0.20781440  0.69376690  0.26558235    -0.15400
C526        C  0.23598902  0.70661878  0.24925411    -0.30600
H527        H  0.16892556  0.68047578  0.26199719     0.13600
H528        H  0.27381946  0.71999439  0.25354979     0.14200
C529        C  0.20558068  0.49711020  0.89927288    -0.15400
C530        C  0.17914435  0.51129305  0.88410917    -0.30600
H531        H  0.22378531  0.50362714  0.91499721     0.13600
H532        H  0.16311037  0.50521555  0.86798644     0.14200
C533        C  0.05196985  0.36386319  0.00554787    -0.15400
C534        C  0.08375713  0.37893362  0.01892398    -0.30600
H535        H  0.02400879  0.34930700  0.01238276     0.13600
H536        H  0.11252041  0.39307938  0.01158581     0.14200
C537        C  0.09956096  0.62186610  0.02383670    -0.15400
C538        C  0.10957453  0.63902825  0.00978978    -0.30600
H539        H  0.09428663  0.60510257  0.01726696     0.13600
H540        H  0.11118484  0.65608290  0.01578737     0.14200
C541        C  0.18136471  0.51326818  0.15333639    -0.15400
C542        C  0.20241382  0.50101777  0.13583940    -0.30600
H543        H  0.18098458  0.50619477  0.16985838     0.13600
H544        H  0.20754185  0.50905397  0.11979010     0.14200
C545        C  0.96770228  0.18970538  0.75819484    -0.15400
C546        C  0.93727002  0.20400740  0.74373728    -0.30600
H547        H  0.00559023  0.17685039  0.75263245     0.13600
H548        H  0.90011804  0.21678903  0.74995308     0.14200
C549        C  0.98743016  0.27608668  0.70610750    -0.15400
C550        C  0.00895167  0.26101155  0.69100947    -0.30600
H551        H  0.95477737  0.27055918  0.72025920     0.13600
H552        H  0.04326973  0.26599609  0.67702907     0.14200
C553        C  0.93796807  0.26003060  0.82628204    -0.15400
C554        C  0.90708838  0.24441410  0.81339361    -0.30600
H555        H  0.97907164  0.25545399  0.83837437     0.13600
H556        H  0.86690792  0.24976407  0.80129259     0.14200
C557        C  0.05307428  0.31791788  0.77284538    -0.15400
C558        C  0.07895753  0.33146584  0.75660544    -0.30600
H559        H  0.01280438  0.30525828  0.76852203     0.13600
H560        H  0.91540866  0.34251258  0.76097545     0.14200
C561        C  0.06647111  0.01285692  0.63820198    -0.15400
C562        C  0.09277520  0.02573778  0.62169719    -0.30600
H563        H  0.05537506  0.01988965  0.65438464     0.13600
H564        H  0.10730526  0.01809562  0.60602240     0.14200
C565        C  0.14039627  0.14299015  0.49708629    -0.15400
C566        C  0.11817958  0.15874586  0.51131913    -0.30600
H567        H  0.16695542  0.12807463  0.50324167     0.13600
H568        H  0.09030246  0.17361715  0.50543924     0.14200
C569        C  0.15303740  0.89263532  0.50797278    -0.15400
C570        C  0.17095885  0.87579058  0.52160945    -0.30600
H571        H  0.14174764  0.90896836  0.51490048     0.13600
H572        H  0.17918207  0.85905151  0.51523552     0.14200
C573        C  0.02273775  0.02063598  0.38525310    -0.15400
C574        C  0.01043858  0.00713983  0.36801221    -0.30600
H575        H  0.02157504  0.01363308  0.40180267     0.13600
H576        H  0.01678186  0.01325918  0.35120872     0.14200
C577        C  0.12121065  0.51822899  0.64186407    -0.15400
C578        C  0.09720916  0.50554446  0.62523196    -0.30600
H579        H  0.12044675  0.51190691  0.65868525     0.13600
H580        H  0.09350276  0.51270347  0.60878554     0.14200
C581        C  0.07056137  0.37383958  0.50212423    -0.15400
C582        C  0.04742922  0.39031694  0.51549120    -0.30600
H583        H  0.07496248  0.35685735  0.50829150     0.13600
H584        H  0.03936581  0.40682847  0.50844903     0.14200
C585        C  0.99095917  0.64669118  0.50382660    -0.15400
C586        C  0.00402562  0.62960747  0.51770414    -0.30600
H587        H  0.99071402  0.66376910  0.50977101     0.13600
H588        H  0.00784004  0.61285521  0.51098987     0.14200
C589        C  0.15803474  0.51743895  0.39402298    -0.15400
C590        C  0.17541999  0.50269583  0.37817645    -0.30600
H591        H  0.14302281  0.51124654  0.41030848     0.13600
H592        H  0.18730928  0.50838536  0.36147633     0.14200
C593        C  0.05509053  0.80558735  0.76437547    -0.15400
C594        C  0.05221575  0.82375643  0.75112042    -0.30600
H595        H  0.05581216  0.78921508  0.75669310     0.13600
H596        H  0.05152987  0.84043847  0.75807354     0.14200
C597        C  0.03944916  0.75658484  0.82789880    -0.15400
C598        C  0.01221317  0.74050913  0.81487838    -0.30600
H599        H  0.06984062  0.75231169  0.84266745     0.13600
H600        H  0.98251322  0.74559850  0.80018519     0.14200
C601        C  0.21423127  0.76272738  0.69942367    -0.15400
C602        C  0.21216002  0.74722085  0.71541807    -0.30600
H603        H  0.19540170  0.75883072  0.68291428     0.13600
H604        H  0.22743386  0.75182588  0.73210048     0.14200
C605        C  0.07146627  0.69094223  0.75214366    -0.15400
C606        C  0.09649105  0.67955767  0.76956618    -0.30600
H607        H  0.02934522  0.70330966  0.75511590     0.13600
H608        H  0.14147267  0.66775208  0.76770985     0.14200
C609        C  0.34817585  0.68436802  0.70443814     0.81300
N610        N  0.32348392  0.67744254  0.72478226    -0.77000
C611        C  0.31711284  0.69237702  0.74145922     0.83700
N612        N  0.33798694  0.71370976  0.73782676    -0.77000
C613        C  0.36390396  0.72080980  0.71810303     0.83800
N614        N  0.36874006  0.70616141  0.70105397    -0.78700
C615        C  0.26979007  0.69260055  0.83647090     0.81300
N616        N  0.25895289  0.71397846  0.84375811    -0.77000
C617        C  0.24414170  0.73059848  0.82918397     0.83700
N618        N  0.24173023  0.72563086  0.80745224    -0.77000
C619        C  0.25412586  0.70479684  0.79985276     0.83800
N620        N  0.26872004  0.68805434  0.81437586    -0.78700
C621        C  0.25934633  0.82950727  0.83218136     0.81300
N622        N  0.24494336  0.80734917  0.83623853    -0.77000
C623        C  0.23387887  0.79326054  0.81896105     0.83700
N624        N  0.23862677  0.80125690  0.79815035    -0.77000
C625        C  0.25411500  0.82290104  0.79378674     0.83800
N626        N  0.26336748  0.83723053  0.81088610    -0.78700
C627        C  0.23635292  0.82439208  0.69692240     0.81300
N628        N  0.22476149  0.80285850  0.69067790    -0.77000
C629        C  0.23334081  0.78600879  0.70530799     0.83700
N630        N  0.25452114  0.79086078  0.72611027    -0.77000
C631        C  0.26537146  0.81211711  0.73277266     0.83800
N632        N  0.25575898  0.82917811  0.71817694    -0.78700
N633        N  0.36639257  0.57357872  0.41588663    -0.26200
N634        N  0.37110040  0.57595460  0.39427817    -0.34100
C635        C  0.37145604  0.55542114  0.38499166     0.02100
C636        C  0.36683750  0.53965834  0.40191368     0.08100
C637        C  0.36375549  0.55187248  0.42111016    -0.05000
H638        H  0.37554229  0.55225715  0.36745521     0.08800
H639        H  0.36059547  0.54541764  0.43780404     0.10000
Cu640      Cu  0.37803695  0.60818035  0.38111291     0.44200
Cu641      Cu  0.36630515  0.59983899  0.43742260     0.42000
Cu642      Cu  0.38809721  0.65668921  0.42209918     0.50300
N643        N  0.38687800  0.64224957  0.37368919    -0.33600
N644        N  0.39108774  0.65915336  0.38775918    -0.27900
C645        C  0.39817784  0.67836068  0.37623957    -0.04000
C646        C  0.39788460  0.67333975  0.35400407     0.08200
C647        C  0.39071461  0.65039274  0.35302574     0.02000
H648        H  0.40333748  0.69474381  0.38354912     0.09700
H649        H  0.38932951  0.64023574  0.33829829     0.08800
N650        N  0.38546866  0.64644973  0.45495574    -0.35100
N651        N  0.37701592  0.62510039  0.45983729    -0.27300
C652        C  0.37895144  0.62230029  0.48168416    -0.02500
C653        C  0.17615885  0.63296980  0.48052551     0.06100
C654        C  0.19919702  0.64930457  0.46546105     0.04200
H655        H  0.37337470  0.60625215  0.48979366     0.09300
H656        H  0.22975832  0.66438745  0.46900344     0.08200
N657        N  0.35839170  0.44319041  0.39945607    -0.26200
N658        N  0.35705429  0.44120361  0.37779155    -0.34100
C659        C  0.36213547  0.46178027  0.36866086     0.02100
C660        C  0.36669057  0.47737090  0.38553006     0.08100
C661        C  0.36436491  0.46479668  0.40480477    -0.05000
H662        H  0.36126064  0.46518549  0.35111699     0.08800
H663        H  0.36543516  0.47067651  0.42163749     0.10000
Cu664      Cu  0.34626921  0.40981762  0.36342709     0.44200
Cu665      Cu  0.34749687  0.41672699  0.42108283     0.42000
Cu666      Cu  0.31559607  0.36125851  0.40270863     0.43900
N667        N  0.33587062  0.37633840  0.35451516    -0.33600
N668        N  0.32465669  0.35922696  0.36814363    -0.27900
C669        C  0.31872755  0.34043894  0.35607168    -0.04000
C670        C  0.32677255  0.34594590  0.33394520     0.08200
C671        C  0.33769370  0.36878662  0.33361840     0.02000
H672        H  0.30827863  0.32399562  0.36289881     0.09700
H673        H  0.34488429  0.37929069  0.31918211     0.08800
N674        N  0.30948002  0.37002574  0.43621065    -0.35100
N675        N  0.32201040  0.39082313  0.44233403    -0.27300
C676        C  0.31296942  0.39255606  0.46422522    -0.02500
C677        C  0.29327679  0.37184640  0.47270147     0.06100
C678        C  0.29221753  0.35782164  0.45442473     0.04200
H679        H  0.31982150  0.40798132  0.47321799     0.09300
H680        H  0.27818527  0.34025043  0.45433025     0.08200
N681        N  0.37255111  0.56552936  0.63039397    -0.26200
N682        N  0.34867467  0.56960943  0.65059347    -0.34100
C683        C  0.32507378  0.55030489  0.65981768     0.02100
C684        C  0.33352129  0.53352741  0.64430551     0.08100
C685        C  0.36385068  0.54384573  0.62589082    -0.05000
H686        H  0.30057727  0.54879260  0.67611491     0.08800
H687        H  0.37771251  0.53630364  0.61019371     0.10000
Cu688      Cu  0.34684519  0.60208661  0.66219251     0.44200
Cu689      Cu  0.41042590  0.58977392  0.60931423     0.42000
Cu690      Cu  0.37796731  0.64741967  0.61955457     0.43900
N691        N  0.35235948  0.63612955  0.66826332    -0.33600
N692        N  0.36399389  0.65223479  0.65353007    -0.27900
C693        C  0.36527649  0.67198941  0.66413638    -0.04000
C694        C  0.35332132  0.66806702  0.68641891     0.08200
C695        C  0.34536809  0.64523247  0.68838894     0.02000
H696        H  0.37366774  0.68801490  0.65617981     0.09700
H697        H  0.33549991  0.63582092  0.70341693     0.08800
N698        N  0.40056042  0.63507361  0.58801656    -0.35100
N699        N  0.41564481  0.61369968  0.58525350    -0.27300
C700        C  0.42758561  0.60956153  0.56388234    -0.02500
C701        C  0.21668710  0.64078509  0.54231325     0.06100
C702        C  0.21290102  0.65562229  0.55978683     0.04200
H703        H  0.43845386  0.59316465  0.55714488     0.09300
H704        H  0.20873091  0.67361248  0.55872472     0.08200
N705        N  0.23433741  0.44326462  0.61304146    -0.26200
N706        N  0.25967908  0.43931867  0.63299008    -0.34100
C707        C  0.27958733  0.45882072  0.64224756     0.02100
C708        C  0.26654459  0.47567894  0.62704909     0.08100
C709        C  0.23827548  0.46519185  0.60876728    -0.05000
H710        H  0.30509794  0.46040360  0.65822961     0.08800
H711        H  0.22413149  0.47283875  0.59316877     0.10000
Cu712      Cu  0.27050350  0.40695053  0.64427444     0.44200
Cu713      Cu  0.20509631  0.41839543  0.59168602     0.42000
Cu714      Cu  0.25316205  0.36140144  0.60196046     0.43900
N715        N  0.26920900  0.37309994  0.65102549    -0.33600
N716        N  0.26152129  0.35669370  0.63656025    -0.27900
C717        C  0.25780164  0.33722226  0.64788066    -0.04000
C718        C  0.26408826  0.34171612  0.67029396     0.08200
C719        C  0.27130493  0.36457320  0.67154468     0.02000
H720        H  0.24970506  0.32102770  0.64040753     0.09700
H721        H  0.27503934  0.37447310  0.68640038     0.08800
N722        N  0.23935232  0.37440610  0.56972913    -0.35100
N723        N  0.21855248  0.39537206  0.56708726    -0.27300
C724        C  0.21686178  0.40046648  0.54561112    -0.02500
C725        C  0.23768016  0.38203720  0.53363111     0.06100
C726        C  0.25170877  0.36556914  0.54940509     0.04200
H727        H  0.20512725  0.41695512  0.53918637     0.09300
H728        H  0.27225059  0.34890201  0.54639903     0.08200
N729        N  0.35204422  0.94786615  0.40344999    -0.26200
N730        N  0.38241945  0.94458874  0.38384130    -0.34100
C731        C  0.40047231  0.96478114  0.37508572     0.02100
C732        C  0.38068341  0.98119433  0.39030110     0.08100
C733        C  0.35049537  0.96970739  0.40791700    -0.05000
H734        H  0.42873856  0.96723987  0.35944941     0.08800
H735        H  0.33110275  0.97670502  0.42336272     0.10000
Cu736      Cu  0.39962996  0.91169088  0.37289594     0.44200
Cu737      Cu  0.32233972  0.92303826  0.42507508     0.42000
Cu738      Cu  0.37793083  0.86760120  0.41811533     0.43900
N739        N  0.40629816  0.87682718  0.36866575    -0.33600
N740        N  0.39788936  0.86152484  0.38443679    -0.27900
C741        C  0.40508894  0.84110189  0.37539502    -0.04000
C742        C  0.41893127  0.84348237  0.35299412     0.08200
C743        C  0.41942022  0.86633906  0.34933784     0.02000
H744        H  0.40119436  0.82559014  0.38455496     0.09700
H745        H  0.42875333  0.87476977  0.33372800     0.08800
N746        N  0.35512950  0.88069529  0.44949270    -0.35100
N747        N  0.33220809  0.90151838  0.45114314    -0.27300
C748        C  0.32450993  0.90702034  0.47240146    -0.02500
C749        C  0.34316436  0.88887546  0.48513262     0.06100
C750        C  0.36257547  0.87225362  0.47012883     0.04200
H751        H  0.30926726  0.92346586  0.47820090     0.09300
H752        H  0.38287931  0.85571703  0.47388137     0.08200
N753        N  0.26203471  0.07681284  0.39805744    -0.26200
N754        N  0.24861813  0.08204953  0.37731691    -0.34100
C755        C  0.23542008  0.06318593  0.36588787     0.02100
C756        C  0.23996708  0.04525570  0.38030803     0.08100
C757        C  0.25733894  0.05458763  0.40053395    -0.05000
H758        H  0.22112479  0.06263917  0.34860625     0.08800
H759        H  0.26514965  0.04594448  0.41603924     0.10000
Cu760      Cu  0.24633117  0.11504963  0.36715133     0.44200
Cu761      Cu  0.28322410  0.10034510  0.42211506     0.42000
Cu762      Cu  0.27732906  0.15919352  0.40968703     0.43900
N763        N  0.24683872  0.14914112  0.36138353    -0.33600
N764        N  0.25836539  0.16494938  0.37622486    -0.27900
C765        C  0.25495765  0.18498054  0.36610624    -0.04000
C766        C  0.24032520  0.18151335  0.34400697     0.08200
C767        C  0.23545889  0.15867789  0.34162777     0.02000
H768        H  0.26194825  0.20087221  0.37427984     0.09700
H769        H  0.22436076  0.14958124  0.32661755     0.08800
N770        N  0.29531037  0.14679154  0.44137723    -0.35100
N771        N  0.29829428  0.12510679  0.44537419    -0.27300
C772        C  0.30945357  0.12173628  0.46695431    -0.02500
C773        C  0.31387704  0.14228542  0.47731855     0.06100
C774        C  0.30423030  0.15784858  0.46057398     0.04200
H775        H  0.31200071  0.10536619  0.47448478     0.09300
H776        H  0.30312976  0.17582507  0.46225792     0.08200
N777        N  0.43021682  0.94317837  0.62620022    -0.26200
N778        N  0.43721753  0.93848189  0.64739453    -0.34100
C779        C  0.23425444  0.96038310  0.65759707     0.02100
C780        C  0.23938213  0.97756216  0.64232517     0.08100
C781        C  0.23071304  0.96752129  0.62197192    -0.05000
H782        H  0.23958310  0.96165325  0.67531715     0.08800
H783        H  0.23096906  0.97549521  0.60592182     0.10000
Cu784      Cu  0.43174429  0.90546117  0.65883627     0.44200
Cu785      Cu  0.41102721  0.91961097  0.60203591     0.42000
Cu786      Cu  0.39784923  0.86206659  0.61528340     0.43900
N787        N  0.42702602  0.87085910  0.66408160    -0.33600
N788        N  0.41430413  0.85572876  0.64863070    -0.27900
C789        C  0.41517350  0.83527452  0.65784334    -0.04000
C790        C  0.42928241  0.83748908  0.68006920     0.08200
C791        C  0.43666986  0.86023126  0.68348656     0.02000
H792        H  0.40674861  0.81987545  0.64891106     0.09700
H793        H  0.44826293  0.86846793  0.69893943     0.08800
N794        N  0.38955282  0.87362834  0.58303958    -0.35100
N795        N  0.39426187  0.89517617  0.57856300    -0.27300
C796        C  0.38764860  0.89830953  0.55676495    -0.02500
C797        C  0.37804592  0.87770837  0.54680093     0.06100
C798        C  0.38004639  0.86236055  0.56399633     0.04200
H799        H  0.39062289  0.91450161  0.54884143     0.09300
H800        H  0.37464907  0.84440980  0.56276858     0.08200
N801        N  0.32786855  0.07153347  0.61963138    -0.26200
N802        N  0.29145987  0.07418842  0.63840791    -0.34100
C803        C  0.27244435  0.05383450  0.64633724     0.02100
C804        C  0.29829919  0.03795465  0.63150356     0.08100
C805        C  0.33247568  0.04982145  0.61485813    -0.05000
H806        H  0.23976398  0.05093551  0.66111711     0.08800
H807        H  0.35702553  0.04319687  0.59990202     0.10000
Cu808      Cu  0.26703926  0.10609127  0.64976864     0.44200
Cu809      Cu  0.36202153  0.09681191  0.59931838     0.42000
Cu810      Cu  0.29149424  0.15046359  0.60554100     0.43900
N811        N  0.25369991  0.14034721  0.65421323    -0.33600
N812        N  0.26297470  0.15587185  0.63872790    -0.27900
C813        C  0.25092563  0.17602102  0.64779384    -0.04000
C814        C  0.23307906  0.17312985  0.66988125     0.08200
C815        C  0.23520464  0.15032981  0.67338529     0.02000
H816        H  0.25466196  0.19168514  0.63888552     0.09700
H817        H  0.22446444  0.14160121  0.68875826     0.08800
N818        N  0.32398498  0.13832653  0.57459201    -0.35100
N819        N  0.35191000  0.11806719  0.57317401    -0.27300
C820        C  0.36420737  0.11288610  0.55201550    -0.02500
C821        C  0.34378230  0.13074714  0.53914036     0.06100
C822        C  0.31836731  0.14680810  0.55393766     0.04200
H823        H  0.38391701  0.09682944  0.54635178     0.09300
H824        H  0.29474516  0.16288390  0.54998842     0.08200
C825        C  0.32548074  0.32264699  0.82366930     0.81300
N826        N  0.14113182  0.30121998  0.83441844    -0.77000
C827        C  0.12240004  0.28525456  0.81964455     0.83700
N828        N  0.09528939  0.29166377  0.79988983    -0.77000
C829        C  0.28013154  0.31009001  0.78952321     0.83800
N830        N  0.29891458  0.32725456  0.80306809    -0.78700
C831        C  0.25548360  0.32623639  0.68916893     0.81300
N832        N  0.23046114  0.30502042  0.68575676    -0.77000
C833        C  0.21651828  0.29148781  0.70334098     0.83700
N834        N  0.22797747  0.29906520  0.72395631    -0.77000
C835        C  0.25457211  0.31979945  0.72777156     0.83800
N836        N  0.26839576  0.33352020  0.71022505    -0.78700
C837        C  0.18035480  0.18790320  0.82061381     0.81300
N838        N  0.18341822  0.18014645  0.79939935    -0.77000
C839        C  0.16184224  0.19332093  0.78236404     0.83700
N840        N  0.13811429  0.21424812  0.78675754    -0.77000
C841        C  0.13613351  0.22248301  0.80747199     0.83800
N842        N  0.15753653  0.20931727  0.82465023    -0.78700
C843        C  0.21453093  0.19081529  0.68580802     0.81300
N844        N  0.22120767  0.21261330  0.67938428    -0.77000
C845        C  0.20121646  0.22922140  0.69333872     0.83700
N846        N  0.17503988  0.22382939  0.71364296    -0.77000
C847        C  0.16949351  0.20243508  0.72054104     0.83800
N848        N  0.18950181  0.18565030  0.70662898    -0.78700
N849        N  0.32334863  0.57090362  0.13108486    -0.26200
N850        N  0.34403961  0.57521899  0.15139817    -0.34100
C851        C  0.36459070  0.55589466  0.16111057     0.02100
C852        C  0.35724543  0.53885529  0.14576947     0.08100
C853        C  0.33052929  0.54909570  0.12701326    -0.05000
H854        H  0.38655085  0.55452159  0.17759161     0.08800
H855        H  0.31891763  0.54144053  0.11127482     0.10000
Cu856      Cu  0.34588070  0.60827236  0.16175803     0.44200
Cu857      Cu  0.29351797  0.59512939  0.10921673     0.42000
Cu858      Cu  0.32301517  0.65307317  0.11685359     0.43900
N859        N  0.34687509  0.64278423  0.16605748    -0.33600
N860        N  0.33917725  0.65854221  0.15076623    -0.27900
C861        C  0.34503941  0.67866504  0.16058453    -0.04000
C862        C  0.35696677  0.67536130  0.18291199     0.08200
C863        C  0.35782240  0.65249827  0.18570280     0.02000
H864        H  0.34223940  0.69452017  0.15201707     0.09700
H865        H  0.36707018  0.64346568  0.20092081     0.08800
N866        N  0.30412232  0.63930910  0.08557607    -0.35100
N867        N  0.29131748  0.61766743  0.08394980    -0.27300
C868        C  0.28253296  0.61211589  0.06284250    -0.02500
C869        C  0.29011091  0.63098856  0.05010506     0.06100
C870        C  0.30396939  0.64820296  0.06495189     0.04200
H871        H  0.27365197  0.59523341  0.05709842     0.09300
H872        H  0.31454714  0.66557488  0.06107534     0.08200
N873        N  0.45917478  0.44922304  0.11291839    -0.26200
N874        N  0.43157478  0.44442526  0.13260636    -0.34100
C875        C  0.41096995  0.46356871  0.14259409     0.02100
C876        C  0.42597503  0.48106703  0.12813579     0.08100
C877        C  0.45612947  0.47130289  0.10957601    -0.05000
H878        H  0.38359466  0.46450777  0.15851443     0.08800
H879        H  0.47235851  0.47959154  0.09437543     0.10000
Cu880      Cu  0.41866789  0.41146331  0.14234779     0.44200
Cu881      Cu  0.27525484  0.41923111  0.10051980     0.42000
Cu882      Cu  0.21377324  0.36487617  0.10894834     0.43900
N883        N  0.19050537  0.37385004  0.15864385    -0.33600
N884        N  0.19527586  0.35887225  0.14259691    -0.27900
C885        C  0.18837594  0.33838935  0.15145454    -0.04000
C886        C  0.17830151  0.34039941  0.17400339     0.08200
C887        C  0.17985804  0.36309926  0.17804648     0.02000
H888        H  0.19098685  0.32305008  0.14209141     0.09700
H889        H  0.38919121  0.37540107  0.18118497     0.08800
N890        N  0.24939650  0.37560583  0.07777479    -0.35100
N891        N  0.27551901  0.39607791  0.07550433    -0.27300
C892        C  0.29518724  0.39962407  0.05442566    -0.02500
C893        C  0.28029632  0.38059212  0.04250816     0.06100
C894        C  0.25102932  0.36550580  0.05780785     0.04200
H895        H  0.31612677  0.41533140  0.04802081     0.09300
H896        H  0.23158718  0.34873186  0.05465865     0.08200
N897        N  0.35354657  0.57352245  0.91011022    -0.26200
N898        N  0.34530098  0.57611826  0.88859370    -0.34100
C899        C  0.35553027  0.55602640  0.87877494     0.02100
C900        C  0.37133204  0.54035057  0.89509532     0.08100
C901        C  0.36967233  0.55217127  0.91456366    -0.05000
H902        H  0.35244988  0.55312098  0.86119746     0.08800
H903        H  0.37896029  0.54563070  0.93097458     0.10000
Cu904      Cu  0.32188341  0.60780119  0.87518044     0.44200
Cu905      Cu  0.34177954  0.59835698  0.93341129     0.42000
Cu906      Cu  0.30647407  0.65322346  0.91844743     0.43900
N907        N  0.30311728  0.64202755  0.86909711    -0.33600
N908        N  0.29835247  0.65753673  0.88463740    -0.27900
C909        C  0.28637011  0.67747815  0.87521375    -0.04000
C910        C  0.28334134  0.67473450  0.85269152     0.08200
C911        C  0.29410739  0.65205071  0.84928113     0.02000
H912        H  0.28005848  0.69293006  0.88423695     0.09700
H913        H  0.29518751  0.64347732  0.83359188     0.08800
N914        N  0.31288353  0.64412953  0.95132572    -0.35100
N915        N  0.32591550  0.62313549  0.95654729    -0.27300
C916        C  0.32618463  0.62098488  0.97854188    -0.02500
C917        C  0.31228908  0.64170513  0.98785172     0.06100
C918        C  0.30468357  0.65610780  0.97004072     0.04200
H919        H  0.33594880  0.60536938  0.98703058     0.09300
H920        H  0.29279524  0.67379153  0.97063009     0.08200
N921        N  0.23408923  0.43783684  0.90622145    -0.26200
N922        N  0.20240679  0.43705052  0.88670860    -0.34100
C923        C  0.37128249  0.46159629  0.86319006     0.02100
C924        C  0.39043610  0.47819076  0.87817609     0.08100
C925        C  0.41811562  0.46660454  0.89609852    -0.05000
H926        H  0.34594244  0.46403764  0.84728045     0.08800
H927        H  0.43790300  0.47335804  0.91146445     0.10000
Cu928      Cu  0.17923575  0.40599345  0.87222263     0.44200
Cu929      Cu  0.26111333  0.41071727  0.92506964     0.42000
Cu930      Cu  0.20301601  0.35736028  0.91242888     0.43900
N931        N  0.16766195  0.37186281  0.86468259    -0.33600
N932        N  0.17706827  0.35513255  0.87883048    -0.27900
C933        C  0.16675983  0.33571431  0.86820568    -0.04000
C934        C  0.14970105  0.34015560  0.84644441     0.08200
C935        C  0.15056199  0.36325293  0.84477222     0.02000
H936        H  0.17092080  0.31942976  0.87588395     0.09700
H937        H  0.13989814  0.37308863  0.83014072     0.08800
N938        N  0.23372549  0.36562779  0.94461874    -0.35100
N939        N  0.25755086  0.38602941  0.94848290    -0.27300
C940        C  0.27175354  0.38837992  0.96996534    -0.02500
C941        C  0.25667023  0.36834675  0.98060621     0.06100
C942        C  0.23203957  0.35423443  0.96396297     0.04200
H943        H  0.28882329  0.40399155  0.97724671     0.09300
H944        H  0.21271261  0.33722213  0.96589467     0.08200
C945        C  0.40697387  0.68852800  0.33505710     0.81300
N946        N  0.39954647  0.68011642  0.31429573    -0.77000
C947        C  0.41317069  0.69322828  0.29647147     0.83700
N948        N  0.43349924  0.71475945  0.29956355    -0.77000
C949        C  0.43929645  0.72360510  0.31996473     0.83800
N950        N  0.42600952  0.71046153  0.33796571    -0.78700
C951        C  0.37331526  0.69209491  0.19994451     0.81300
N952        N  0.37200399  0.71443761  0.19501103    -0.77000
C953        C  0.39350197  0.72939857  0.21054472     0.83700
N954        N  0.41586424  0.72207370  0.23036206    -0.77000
C955        C  0.41533641  0.70030285  0.23568134     0.83800
N956        N  0.39433570  0.68505012  0.22046536    -0.78700
C957        C  0.23819691  0.83076476  0.33400268     0.81300
N958        N  0.42807664  0.80359533  0.34343143    -0.77000
C959        C  0.25239638  0.79271630  0.32456105     0.83700
N960        N  0.26906281  0.79913305  0.30355376    -0.77000
C961        C  0.27023333  0.82098754  0.29736396     0.83800
N962        N  0.25422622  0.83681797  0.31270682    -0.78700
C963        C  0.29273604  0.82578610  0.19932381     0.81300
N964        N  0.29181285  0.82873318  0.22184602    -0.77000
C965        C  0.31203488  0.81139680  0.23523173     0.83700
N966        N  0.33255021  0.79189226  0.22601083    -0.77000
C967        C  0.33274963  0.78869540  0.20395326     0.83800
N968        N  0.31182988  0.80559607  0.19060369    -0.78700
C969        C  0.31893883  0.33113221  0.31470897     0.81300
N970        N  0.29436359  0.30968184  0.31761480    -0.77000
C971        C  0.28344848  0.29652233  0.29970938     0.83700
N972        N  0.29732829  0.30477873  0.27939502    -0.77000
C973        C  0.32214669  0.32583295  0.27607251     0.83800
N974        N  0.33344498  0.33912539  0.29388307    -0.78700
C975        C  0.38804562  0.32666900  0.17909480     0.81300
N976        N  0.36350976  0.33238278  0.19973835    -0.77000
C977        C  0.35202946  0.31620125  0.21512600     0.83700
N978        N  0.36513651  0.29471249  0.20982420    -0.77000
C979        C  0.39056956  0.28877909  0.18962164     0.83800
N980        N  0.40088586  0.30479957  0.17397975    -0.78700
C981        C  0.22962935  0.19833962  0.32669709     0.81300
N982        N  0.24348178  0.22032192  0.33091452    -0.77000
C983        C  0.23254666  0.23591655  0.31497714     0.83700
N984        N  0.20657706  0.22930736  0.29512886    -0.77000
C985        C  0.19350000  0.20756928  0.29062180     0.83800
N986        N  0.20578651  0.19190982  0.30636773    -0.78700
C987        C  0.20260098  0.18675845  0.19283789     0.81300
N988        N  0.21354652  0.20898228  0.18873658    -0.77000
C989        C  0.22210540  0.22326594  0.20587746     0.83700
N990        N  0.21772014  0.21549974  0.22670200    -0.77000
C991        C  0.20484043  0.19374392  0.23117810     0.83800
N992        N  0.19851558  0.17908883  0.21417149    -0.78700
N993        N  0.16710521  0.94357854  0.13211403    -0.26200
N994        N  0.18716978  0.94166187  0.15288301    -0.34100
C995        C  0.18438062  0.96215984  0.16220795     0.02100
C996        C  0.16139296  0.97743994  0.14630429     0.08100
C997        C  0.15127465  0.96482015  0.12751038    -0.05000
H998        H  0.20000659  0.96580365  0.17900262     0.08800
H999        H  0.13631418  0.97045251  0.11120904     0.10000
Cu1000     Cu  0.21984740  0.91043131  0.16482991     0.44200
Cu1001     Cu  0.16950821  0.91868353  0.10922925     0.42000
Cu1002     Cu  0.24690806  0.86757461  0.11792465     0.43900
N1003       N  0.24620698  0.87655987  0.16851771    -0.33600
N1004       N  0.25550223  0.86199944  0.15221091    -0.27900
C1005       C  0.27211900  0.84203999  0.16102931    -0.04000
C1006       C  0.27351263  0.84388548  0.18379283     0.08200
C1007       C  0.25672241  0.86599539  0.18798876     0.02000
H1008       H  0.28293342  0.82716172  0.15145423     0.09700
H1009       H  0.25301744  0.87390414  0.20398771     0.08800
N1010       N  0.22835633  0.87898418  0.08556602    -0.35100
N1011       N  0.19774008  0.89876655  0.08322079    -0.27300
C1012       C  0.19429476  0.90414290  0.06181293    -0.02500
C1013       C  0.22345725  0.88687687  0.04961186     0.06100
C1014       C  0.24476661  0.87096221  0.06518562     0.04200
H1015       H  0.17416721  0.91993121  0.05558807     0.09300
H1016       H  0.27299758  0.85539326  0.06200968     0.08200
N1017       N  0.15109639  0.07200597  0.11225241    -0.26200
N1018       N  0.15802749  0.07504651  0.13371333    -0.34100
C1019       C  0.15393926  0.05505076  0.14404263     0.02100
C1020       C  0.14334678  0.03881875  0.12812282     0.08100
C1021       C  0.14161046  0.05019366  0.10828883    -0.05000
H1022       H  0.15840850  0.05258880  0.16167421     0.08800
H1023       H  0.13562786  0.04303844  0.09202518     0.10000
Cu1024     Cu  0.17274035  0.10671477  0.14665084     0.44200
Cu1025     Cu  0.15888668  0.09727474  0.08897078     0.42000
Cu1026     Cu  0.18768324  0.15371825  0.10581334     0.43900
N1027       N  0.18400763  0.14020149  0.15465811    -0.33600
N1028       N  0.18938498  0.15699174  0.14039060    -0.27900
C1029       C  0.19644960  0.17614599  0.15182777    -0.04000
C1030       C  0.19531288  0.17114685  0.17420464     0.08200
C1031       C  0.18729652  0.14824447  0.17533436     0.02000
H1032       H  0.20225592  0.19252197  0.14439406     0.09700
H1033       H  0.18443392  0.13808193  0.19012310     0.08800
N1034       N  0.38584613  0.15021597  0.07191935    -0.35100
N1035       N  0.37173436  0.12941298  0.06613432    -0.27300
C1036       C  0.37755583  0.12747248  0.04417945    -0.02500
C1037       C  0.39650937  0.14805739  0.03529615     0.06100
C1038       C  0.40068069  0.16223957  0.05340544     0.04200
H1039       H  0.36952619  0.11196913  0.03540190     0.09300
H1040       H  0.41604835  0.17970981  0.05319197     0.08200
N1041       N  0.32846518  0.94509783  0.91153812    -0.26200
N1042       N  0.31795550  0.94246286  0.89015689    -0.34100
C1043       C  0.31992245  0.96279979  0.88030926     0.02100
C1044       C  0.33287032  0.97874653  0.89647101     0.08100
C1045       C  0.33813276  0.96682358  0.91589906    -0.05000
H1046       H  0.31228920  0.96571931  0.86285255     0.08800
H1047       H  0.34650769  0.97355836  0.93223820     0.10000
Cu1048     Cu  0.30101506  0.91054652  0.87705867     0.44200
Cu1049     Cu  0.32367962  0.91961894  0.93456538     0.42000
Cu1050     Cu  0.28134112  0.86394045  0.91856091     0.43900
N1051       N  0.28558677  0.87668323  0.86955175    -0.33600
N1052       N  0.27847251  0.86018177  0.88410885    -0.27900
C1053       C  0.26851998  0.84085465  0.87310305    -0.04000
C1054       C  0.26951447  0.84532558  0.85064154     0.08200
C1055       C  0.28052528  0.86817512  0.84906495     0.02000
H1056       H  0.26080619  0.82472256  0.88090428     0.09700
H1057       H  0.28413700  0.87798331  0.83405615     0.08800
N1058       N  0.28352746  0.87385756  0.95173997    -0.35100
N1059       N  0.29919837  0.89467875  0.95713675    -0.27300
C1060       C  0.29374155  0.89700340  0.97910997    -0.02500
C1061       C  0.27364780  0.87663424  0.98831018     0.06100
C1062       C  0.26822449  0.86223902  0.97043740     0.04200
H1063       H  0.30325552  0.91254385  0.98768778     0.09300
H1064       H  0.25216646  0.84482929  0.97094967     0.08200
N1065       N  0.31483873  0.07495721  0.89432972    -0.26200
N1066       N  0.28938631  0.07686391  0.87412645    -0.34100
C1067       C  0.28876335  0.05638264  0.86478116     0.02100
C1068       C  0.31496467  0.04096160  0.88005832     0.08100
C1069       C  0.33090293  0.05356668  0.89857212    -0.05000
H1070       H  0.26846240  0.05283375  0.84843159     0.08800
H1071       H  0.35003591  0.04776199  0.91441243     0.10000
Cu1072     Cu  0.25468734  0.10817741  0.86302179     0.44200
Cu1073     Cu  0.31732059  0.10096484  0.91626744     0.42000
Cu1074     Cu  0.23079220  0.15343213  0.90657613     0.43900
N1075       N  0.22810965  0.14168643  0.85720616    -0.33600
N1076       N  0.21934349  0.15771035  0.87210902    -0.27900
C1077       C  0.20198235  0.17685089  0.86144730    -0.04000
C1078       C  0.19994818  0.17266592  0.83893401     0.08200
C1079       C  0.21685960  0.15026884  0.83698102     0.02000
H1080       H  0.19119143  0.19262241  0.86950005     0.09700
H1081       H  0.22011812  0.14074395  0.82186013     0.08800
N1082       N  0.25141891  0.14130574  0.93869170    -0.35100
N1083       N  0.28476339  0.12189362  0.94125211    -0.27300
C1084       C  0.28744703  0.11665063  0.96270320    -0.02500
C1085       C  0.25490338  0.13347038  0.97471725     0.06100
C1086       C  0.23245159  0.14906767  0.95899646     0.04200
H1087       H  0.30909190  0.10111218  0.96907722     0.09300
H1088       H  0.20160041  0.16421080  0.96199723     0.08200
C1089       C  0.33800209  0.00337121  0.89528177    -0.15400
C1090       C  0.31662263  0.01615552  0.87817003    -0.30600
H1091       H  0.35706185  0.01128485  0.91023659     0.13600
H1092       H  0.29647095  0.00841422  0.86321118     0.14200
C1093       C  0.41496926  0.15266814  0.01169430    -0.15400
C1094       C  0.23912168  0.13131198  0.99866922    -0.30600
H1095       H  0.20575118  0.16427511  0.00606199     0.13600
H1096       H  0.44979224  0.11975446  0.00668280     0.14200
C1097       C  0.23757055  0.88865257  0.02555729    -0.15400
C1098       C  0.25784167  0.87192860  0.01204845    -0.30600
H1099       H  0.22937534  0.90516194  0.01853003     0.13600
H1100       H  0.26144237  0.85493745  0.01824301     0.14200
C1101       C  0.13772411  0.01436804  0.13006954    -0.15400
C1102       C  0.15793545  0.00219375  0.14774160    -0.30600
H1103       H  0.11989072  0.00607887  0.11519030     0.13600
H1104       H  0.17637730  0.01037893  0.16267037     0.14200
C1105       C  0.19835443  0.18729113  0.25475934    -0.15400
C1106       C  0.16666805  0.20227603  0.26841138    -0.30600
H1107       H  0.23238749  0.17388206  0.26109855     0.13600
H1108       H  0.13419689  0.21554827  0.26100440     0.14200
C1109       C  0.23343975  0.24735810  0.20342522    -0.15400
C1110       C  0.19754254  0.26019173  0.18898708    -0.30600
H1111       H  0.25831749  0.25543107  0.21762414     0.13600
H1112       H  0.38955298  0.25734245  0.16973642     0.14200
C1113       C  0.25489796  0.27350896  0.30067110    -0.15400
C1114       C  0.25430216  0.25965792  0.31819071    -0.30600
H1115       H  0.23715594  0.26717061  0.28478990     0.13600
H1116       H  0.27433097  0.26524261  0.33407855     0.14200
C1117       C  0.34032280  0.33286086  0.25302051    -0.15400
C1118       C  0.31514534  0.32002641  0.23645798    -0.30600
H1119       H  0.38106933  0.34584971  0.24995541     0.13600
H1120       H  0.27598338  0.30691639  0.24053097     0.14200
C1121       C  0.28278405  0.82694407  0.27357537    -0.15400
C1122       C  0.30878461  0.81122478  0.25972607    -0.30600
H1123       H  0.26632241  0.84319217  0.26736698     0.13600
H1124       H  0.32648020  0.79548889  0.26693520     0.14200
C1125       C  0.39480647  0.75368838  0.20774592    -0.15400
C1126       C  0.34897640  0.76601312  0.19560814    -0.30600
H1127       H  0.42676754  0.76223815  0.22029453     0.13600
H1128       H  0.31554019  0.75865618  0.18275756     0.14200
C1129       C  0.46301502  0.74717335  0.32106339    -0.15400
C1130       C  0.43685300  0.76280862  0.33508100    -0.30600
H1131       H  0.49566168  0.75258102  0.30686512     0.13600
H1132       H  0.40306426  0.75803052  0.34923798     0.14200
C1133       C  0.40337188  0.68504876  0.27361858    -0.15400
C1134       C  0.44342604  0.69484278  0.25756587    -0.30600
H1135       H  0.35689606  0.67432442  0.26978213     0.13600
H1136       H  0.48699340  0.70608011  0.26261603     0.14200
C1137       C  0.37762346  0.50276410  0.87646132    -0.15400
C1138       C  0.38803846  0.51617366  0.89399483    -0.30600
H1139       H  0.35627943  0.50961820  0.86120382     0.13600
H1140       H  0.40697028  0.50896411  0.90934669     0.14200
C1141       C  0.25730765  0.36441625  0.00489806    -0.15400
C1142       C  0.28931657  0.37943612  0.01827754    -0.30600
H1143       H  0.22720967  0.35027059  0.01177341     0.13600
H1144       H  0.32001798  0.39324345  0.01102974     0.14200
C1145       C  0.28949211  0.63001841  0.02583146    -0.15400
C1146       C  0.30566938  0.64671846  0.01176529    -0.30600
H1147       H  0.27673610  0.61366059  0.01916801     0.13600
H1148       H  0.31519678  0.66355648  0.01769713     0.14200
C1149       C  0.38137224  0.51533847  0.14749943    -0.15400
C1150       C  0.40415485  0.50465947  0.12920242    -0.30600
H1151       H  0.38208692  0.50711161  0.16349025     0.13600
H1152       H  0.40821602  0.51381344  0.11372574     0.14200
C1153       C  0.17042266  0.18635987  0.75886956    -0.15400
C1154       C  0.13988688  0.19911263  0.74304490    -0.30600
H1155       H  0.20957529  0.17335624  0.75459160     0.13600
H1156       H  0.10187342  0.21216089  0.74812138     0.14200
C1157       C  0.18687315  0.26880295  0.70144407    -0.15400
C1158       C  0.21338404  0.25309675  0.68770698    -0.30600
H1159       H  0.15116623  0.26378715  0.71511632     0.13600
H1160       H  0.25084102  0.25757495  0.67429011     0.14200
C1161       C  0.13521020  0.26104976  0.82409543    -0.15400
C1162       C  0.11037646  0.24575172  0.80968328    -0.30600
H1163       H  0.17023490  0.25607112  0.83767057     0.13600
H1164       H  0.07630024  0.25137625  0.79610559     0.14200
C1165       C  0.24712324  0.31290746  0.76754845    -0.15400
C1166       C  0.27276077  0.32600662  0.75096050    -0.30600
H1167       H  0.20779917  0.29982170  0.76360611     0.13600
H1168       H  0.12050970  0.34404389  0.75999503     0.14200
C1169       C  0.25421904  0.00142031  0.64641952    -0.15400
C1170       C  0.28559144  0.01379228  0.63041485    -0.30600
H1171       H  0.24010617  0.00865720  0.66231077     0.13600
H1172       H  0.30340001  0.00580042  0.61520471     0.14200
C1173       C  0.32121468  0.14638497  0.50136257    -0.15400
C1174       C  0.34198543  0.12975239  0.51484243    -0.30600
H1175       H  0.30779591  0.16272370  0.50796769     0.13600
H1176       H  0.35827737  0.11386916  0.50776673     0.14200
C1177       C  0.34855259  0.89004601  0.50938066    -0.15400
C1178       C  0.36883484  0.87335599  0.52286475    -0.30600
H1179       H  0.33523070  0.90618752  0.51645443     0.13600
H1180       H  0.37885921  0.85673437  0.51641743     0.14200
C1181       C  0.22283043  0.02149673  0.37578438    -0.15400
C1182       C  0.19813463  0.00836205  0.39225958    -0.30600
H1183       H  0.22774819  0.01511234  0.35908612     0.13600
H1184       H  0.18883059  0.01565631  0.40843808     0.14200
C1185       C  0.30877870  0.51009998  0.64590119    -0.15400
C1186       C  0.28877508  0.49924179  0.62757029    -0.30600
H1187       H  0.30497701  0.50206912  0.66196711     0.13600
H1188       H  0.28769307  0.50810189  0.61189985     0.14200
C1189       C  0.27440410  0.36669649  0.49619334    -0.15400
C1190       C  0.25230008  0.38333063  0.50958131    -0.30600
H1191       H  0.27868012  0.34970960  0.50234834     0.13600
H1192       H  0.24444733  0.39981478  0.50247702     0.14200
C1193       C  0.18880404  0.63005739  0.50435986    -0.15400
C1194       C  0.21045289  0.64599082  0.51841245    -0.30600
H1195       H  0.17546197  0.61357638  0.51077667     0.13600
H1196       H  0.21977131  0.66295368  0.51261273     0.14200
C1197       C  0.36682319  0.51502185  0.40163182    -0.15400
C1198       C  0.36883662  0.50213422  0.38350813    -0.30600
H1199       H  0.36438081  0.50722480  0.41778641     0.13600
H1200       H  0.37067523  0.50971394  0.36720608     0.14200
C1201       C  0.25913407  0.82984898  0.77024722    -0.15400
C1202       C  0.28792904  0.81503666  0.75589174    -0.30600
H1203       H  0.22886352  0.84435754  0.76457611     0.13600
H1204       H  0.31686029  0.80070374  0.76268153     0.14200
C1205       C  0.21462366  0.76935580  0.82094204    -0.15400
C1206       C  0.23972646  0.75454380  0.83585261    -0.30600
H1207       H  0.18813843  0.76282837  0.80627797     0.13600
H1208       H  0.26670521  0.76013199  0.85077233     0.14200
C1209       C  0.40384596  0.75761715  0.70038600    -0.15400
C1210       C  0.39201528  0.74386800  0.71771336    -0.30600
H1211       H  0.39252527  0.75228211  0.68365204     0.13600
H1212       H  0.39972494  0.75042082  0.73423913     0.14200
C1213       C  0.29148539  0.68635289  0.76404397    -0.15400
C1214       C  0.25752536  0.70249002  0.77570271    -0.30600
H1215       H  0.30906908  0.67087951  0.77172283     0.13600
H1216       H  0.23992982  0.71738407  0.76688723     0.14200
C1217       C  0.55002648  0.69127522  0.69862522     0.81300
N1218       N  0.52709772  0.68373428  0.71898283    -0.77000
C1219       C  0.52122296  0.69808434  0.73623031     0.83700
N1220       N  0.54087184  0.71966047  0.73307774    -0.77000
C1221       C  0.56501600  0.72752316  0.71337749     0.83800
N1222       N  0.56922660  0.71332665  0.69580567    -0.78700
C1223       C  0.46779625  0.69262125  0.83256497     0.81300
N1224       N  0.45298417  0.71335776  0.84085122    -0.77000
C1225       C  0.43804463  0.73059630  0.82709893     0.83700
N1226       N  0.44023601  0.72704281  0.80509159    -0.77000
C1227       C  0.45707720  0.70694502  0.79635929     0.83800
N1228       N  0.47125193  0.68941225  0.81013907    -0.78700
C1229       C  0.45661336  0.82851062  0.83042737     0.81300
N1230       N  0.43712766  0.80687279  0.83518857    -0.77000
C1231       C  0.42573234  0.79226833  0.81841043     0.83700
N1232       N  0.43526181  0.79919151  0.79738979    -0.77000
C1233       C  0.45618228  0.82028624  0.79236907     0.83800
N1234       N  0.46554007  0.83521404  0.80894199    -0.78700
C1235       C  0.43611870  0.81933645  0.69633351     0.81300
N1236       N  0.42049659  0.79783864  0.69030936    -0.77000
C1237       C  0.42739833  0.78097979  0.70518851     0.83700
N1238       N  0.45132514  0.78585128  0.72569682    -0.77000
C1239       C  0.46592502  0.80693821  0.73204110     0.83800
N1240       N  0.45765114  0.82394792  0.71740196    -0.78700
N1241       N  0.56331689  0.57527698  0.40473490    -0.26200
N1242       N  0.56798404  0.57900497  0.38328265    -0.34100
C1243       C  0.56700577  0.55918364  0.37269497     0.02100
C1244       C  0.56156405  0.54218383  0.38830511     0.08100
C1245       C  0.55909702  0.55318178  0.40845328    -0.05000
H1246       H  0.57083125  0.55724718  0.35497446     0.08800
H1247       H  0.55560587  0.54585215  0.42475892     0.10000
Cu1248     Cu  0.57688667  0.61152039  0.37087032     0.44200
Cu1249     Cu  0.56597065  0.60047166  0.42805970     0.42000
Cu1250     Cu  0.58702423  0.65802308  0.41255082     0.50300
N1251       N  0.58786257  0.64551645  0.36341723    -0.33600
N1252       N  0.59195919  0.66196416  0.37798641    -0.27900
C1253       C  0.60124617  0.68139757  0.36694190    -0.04000
C1254       C  0.60278315  0.67704541  0.34447719     0.08200
C1255       C  0.59408248  0.65415251  0.34290833     0.02000
H1256       H  0.60739319  0.69752226  0.37472361     0.09700
H1257       H  0.59383844  0.64436986  0.32792789     0.08800
N1258       N  0.58342071  0.64746291  0.44573200    -0.35100
N1259       N  0.57568699  0.62608014  0.45074365    -0.27300
C1260       C  0.57688984  0.62350209  0.47272267    -0.02500
C1261       C  0.38974536  0.64288024  0.49139992     0.06100
C1262       C  0.39283645  0.65798998  0.47396338     0.04200
H1263       H  0.57156184  0.60750386  0.48092937     0.09300
H1264       H  0.40156078  0.67583432  0.47497946     0.08200
N1265       N  0.55729109  0.44314843  0.41018248    -0.26200
N1266       N  0.55844043  0.44272379  0.38840319    -0.34100
C1267       C  0.56089735  0.46411729  0.38095384     0.02100
C1268       C  0.56121003  0.47830716  0.39919470     0.08100
C1269       C  0.55895284  0.46429050  0.41724153    -0.05000
H1270       H  0.56144226  0.46894404  0.36373174     0.08800
H1271       H  0.55727277  0.46913958  0.43443094     0.10000
Cu1272     Cu  0.55402414  0.41159598  0.37221904     0.44200
Cu1273     Cu  0.54887268  0.41539932  0.42990331     0.42000
Cu1274     Cu  0.52267847  0.36102562  0.41043007     0.43900
N1275       N  0.54304869  0.37786710  0.36248242    -0.33600
N1276       N  0.53133586  0.36046676  0.37576965    -0.27900
C1277       C  0.52386327  0.34194588  0.36337217    -0.04000
C1278       C  0.53155514  0.34770591  0.34132196     0.08200
C1279       C  0.54381523  0.37058062  0.34141108     0.02000
H1280       H  0.51262433  0.32545241  0.36996580     0.09700
H1281       H  0.55087563  0.38128566  0.32711509     0.08800
N1282       N  0.51277335  0.36856351  0.44415189    -0.35100
N1283       N  0.52288290  0.38935714  0.45057393    -0.27300
C1284       C  0.51117347  0.39091600  0.47232528    -0.02500
C1285       C  0.49250754  0.37003869  0.48048747     0.06100
C1286       C  0.49473800  0.35607340  0.46213407     0.04200
H1287       H  0.51581485  0.40633077  0.48146880     0.09300
H1288       H  0.48215641  0.33840810  0.46180527     0.08200
N1289       N  0.56987026  0.56999211  0.62600256    -0.26200
N1290       N  0.55118045  0.57509649  0.64645657    -0.34100
C1291       C  0.53172259  0.55614736  0.65725645     0.02100
C1292       C  0.53753614  0.53838978  0.64263433     0.08100
C1293       C  0.56218043  0.54792116  0.62300451    -0.05000
H1294       H  0.51217610  0.55544153  0.67417692     0.08800
H1295       H  0.57283475  0.53954690  0.60751128     0.10000
Cu1296     Cu  0.55128703  0.60846912  0.65637808     0.44200
Cu1297     Cu  0.60025314  0.59378089  0.60294730     0.42000
Cu1298     Cu  0.58159996  0.65304527  0.61273344     0.43900
N1299       N  0.55576658  0.64289880  0.66198159    -0.33600
N1300       N  0.56702511  0.65890676  0.64708574    -0.27900
C1301       C  0.56723780  0.67881203  0.65768740    -0.04000
C1302       C  0.55516952  0.67508942  0.68013275     0.08200
C1303       C  0.54813704  0.65217504  0.68205318     0.02000
H1304       H  0.57530897  0.69481550  0.64966250     0.09700
H1305       H  0.53851313  0.64279055  0.69711088     0.08800
N1306       N  0.59813350  0.63934804  0.58080523    -0.35100
N1307       N  0.60788345  0.61760326  0.57839902    -0.27300
C1308       C  0.61682002  0.61277048  0.55700192    -0.02500
C1309       C  0.41931948  0.62913489  0.55229160     0.06100
C1310       C  0.40190340  0.64519240  0.56800803     0.04200
H1311       H  0.62330274  0.59601644  0.55063525     0.09300
H1312       H  0.39004171  0.66265008  0.56513942     0.08200
N1313       N  0.43980204  0.44491866  0.61852743    -0.26200
N1314       N  0.46562009  0.44194935  0.63860302    -0.34100
C1315       C  0.48640420  0.46203543  0.64667585     0.02100
C1316       C  0.47327794  0.47815724  0.63057908     0.08100
C1317       C  0.44408344  0.46658211  0.61307684    -0.05000
H1318       H  0.51229738  0.46452745  0.66248661     0.08800
H1319       H  0.42937479  0.47333527  0.59713006     0.10000
Cu1320     Cu  0.47386846  0.40955431  0.65135749     0.44200
Cu1321     Cu  0.40838392  0.41927826  0.59818218     0.42000
Cu1322     Cu  0.45460260  0.36301624  0.60922458     0.43900
N1323       N  0.46894701  0.37526894  0.65825414    -0.33600
N1324       N  0.46116784  0.35894787  0.64366492    -0.27900
C1325       C  0.45602157  0.33936019  0.65465568    -0.04000
C1326       C  0.46132178  0.34347021  0.67707481     0.08200
C1327       C  0.46952907  0.36636255  0.67869727     0.02000
H1328       H  0.44788664  0.32330757  0.64689204     0.09700
H1329       H  0.47359719  0.37597416  0.69372663     0.08800
N1330       N  0.43901449  0.37479063  0.57691724    -0.35100
N1331       N  0.41805135  0.39566147  0.57384501    -0.27300
C1332       C  0.41386028  0.39997695  0.55223921    -0.02500
C1333       C  0.43348511  0.38109751  0.54071979     0.06100
C1334       C  0.44941346  0.36522433  0.55685987     0.04200
H1335       H  0.40149785  0.41623042  0.54535636     0.09300
H1336       H  0.46929585  0.34841451  0.55425744     0.08200
N1337       N  0.56930168  0.95488650  0.39077771    -0.26200
N1338       N  0.59083081  0.95016193  0.37045167    -0.34100
C1339       C  0.60608480  0.96950943  0.35974175     0.02100
C1340       C  0.59434819  0.98704562  0.37430973     0.08100
C1341       C  0.57066347  0.97701120  0.39372830    -0.05000
H1342       H  0.62727495  0.97067098  0.34301748     0.08800
H1343       H  0.55684760  0.98507780  0.40916815     0.10000
Cu1344     Cu  0.60170114  0.91699759  0.36041972     0.44200
Cu1345     Cu  0.54464215  0.93156942  0.41467136     0.42000
Cu1346     Cu  0.58602680  0.87484036  0.40682427     0.43900
N1347       N  0.60918259  0.88231778  0.35716538    -0.33600
N1348       N  0.60324167  0.86761640  0.37353263    -0.27900
C1349       C  0.61105768  0.84693438  0.36528295    -0.04000
C1350       C  0.62273176  0.84858327  0.34276595     0.08200
C1351       C  0.62134251  0.87121865  0.33816515     0.02000
H1352       H  0.60936229  0.83178531  0.37506950     0.09700
H1353       H  0.62912326  0.87908503  0.32220159     0.08800
N1354       N  0.56280491  0.88772608  0.43798224    -0.35100
N1355       N  0.54507403  0.90896179  0.44021221    -0.27300
C1356       C  0.53438114  0.91356782  0.46160044    -0.02500
C1357       C  0.54622562  0.89439035  0.47366211     0.06100
C1358       C  0.56440628  0.87816011  0.45821036     0.04200
H1359       H  0.52210523  0.93000901  0.46800219     0.09300
H1360       H  0.57947634  0.86099344  0.46140178     0.08200
N1361       N  0.45738020  0.07435788  0.39545726    -0.26200
N1362       N  0.44658799  0.07924004  0.37445039    -0.34100
C1363       C  0.43393057  0.06005214  0.36337227     0.02100
C1364       C  0.43610020  0.04238436  0.37827668     0.08100
C1365       C  0.45156653  0.05221602  0.39838188    -0.05000
H1366       H  0.42196315  0.05908720  0.34594524     0.08800
H1367       H  0.45771759  0.04396105  0.41416037     0.10000
Cu1368     Cu  0.44737104  0.11233500  0.36326378     0.44200
Cu1369     Cu  0.47748411  0.09760058  0.41992824     0.42000
Cu1370     Cu  0.47706451  0.15530411  0.40717676     0.43900
N1371       N  0.44778335  0.14696399  0.35832953    -0.33600
N1372       N  0.45899518  0.16204843  0.37392465    -0.27900
C1373       C  0.45522877  0.18257929  0.36492493    -0.04000
C1374       C  0.44063526  0.18043542  0.34269631     0.08200
C1375       C  0.43615334  0.15766058  0.33906892     0.02000
H1376       H  0.46170720  0.19797325  0.37401062     0.09700
H1377       H  0.42494232  0.14944634  0.32357859     0.08800
N1378       N  0.49122712  0.14363841  0.43924250    -0.35100
N1379       N  0.49213868  0.12203152  0.44362742    -0.27300
C1380       C  0.50169450  0.11900204  0.46537164    -0.02500
C1381       C  0.50713739  0.13976039  0.47535855     0.06100
C1382       C  0.49975749  0.15502344  0.45825049     0.04200
H1383       H  0.50291045  0.10279151  0.47328023     0.09300
H1384       H  0.50043846  0.17303853  0.45953682     0.08200
N1385       N  0.64511945  0.94469617  0.61144253    -0.26200
N1386       N  0.64694488  0.94179221  0.63301459    -0.34100
C1387       C  0.44915914  0.95773463  0.65842815     0.02100
C1388       C  0.45058647  0.97524445  0.64330742     0.08100
C1389       C  0.43797925  0.96525651  0.62308917    -0.05000
H1390       H  0.45765645  0.95886798  0.67603711     0.08800
H1391       H  0.43441352  0.97337671  0.60716140     0.10000
Cu1392     Cu  0.63779024  0.90930930  0.64551302     0.44200
Cu1393     Cu  0.63122387  0.91961020  0.58908693     0.42000
Cu1394     Cu  0.61115977  0.86301621  0.60242292     0.43900
N1395       N  0.63198999  0.87482351  0.65126941    -0.33600
N1396       N  0.62288533  0.85877541  0.63644665    -0.27900
C1397       C  0.62221696  0.83887079  0.64689605    -0.04000
C1398       C  0.63137614  0.84250385  0.66920180     0.08200
C1399       C  0.63743601  0.86539903  0.67135955     0.02000
H1400       H  0.61553846  0.82292471  0.63880191     0.09700
H1401       H  0.64521423  0.87461429  0.68649346     0.08800
N1402       N  0.60041301  0.87450099  0.57009918    -0.35100
N1403       N  0.60799509  0.89600301  0.56588400    -0.27300
C1404       C  0.59790593  0.89984264  0.54439253    -0.02500
C1405       C  0.58284986  0.87974317  0.53421471     0.06100
C1406       C  0.58552594  0.86387259  0.55099282     0.04200
H1407       H  0.60217560  0.91618715  0.53682379     0.09300
H1408       H  0.57654528  0.84607948  0.54946000     0.08200
N1409       N  0.52538683  0.07079544  0.61917937    -0.26200
N1410       N  0.49160265  0.07354679  0.63836516    -0.34100
C1411       C  0.47621719  0.05307641  0.64694633     0.02100
C1412       C  0.50128617  0.03700778  0.63203550     0.08100
C1413       C  0.53176627  0.04900910  0.61478713    -0.05000
H1414       H  0.44574595  0.05014880  0.66213255     0.08800
H1415       H  0.55449193  0.04235857  0.59959061     0.10000
Cu1416     Cu  0.46592328  0.10618312  0.64864163     0.44200
Cu1417     Cu  0.55311182  0.09626446  0.59802098     0.42000
Cu1418     Cu  0.48889080  0.15110911  0.60381173     0.43900
N1419       N  0.45329160  0.14093736  0.65275339    -0.33600
N1420       N  0.46212056  0.15655513  0.63729106    -0.27900
C1421       C  0.45108407  0.17676373  0.64653911    -0.04000
C1422       C  0.43432318  0.17387417  0.66872816     0.08200
C1423       C  0.43605093  0.15097707  0.67201847     0.02000
H1424       H  0.45472790  0.19246331  0.63769267     0.09700
H1425       H  0.42589255  0.14220458  0.68740043     0.08800
N1426       N  0.52033957  0.13826032  0.57287468    -0.35100
N1427       N  0.54594115  0.11768563  0.57175059    -0.27300
C1428       C  0.55834032  0.11214705  0.55067925    -0.02500
C1429       C  0.54000169  0.12997259  0.53747260     0.06100
C1430       C  0.51600033  0.14649073  0.55204733     0.04200
H1431       H  0.57617108  0.09580206  0.54527965     0.09300
H1432       H  0.49404030  0.16271031  0.54781885     0.08200
C1433       C  0.53317976  0.32129675  0.82938680     0.81300
N1434       N  0.33444535  0.30094149  0.83027779    -0.77000
C1435       C  0.31572481  0.28388724  0.81668930     0.83700
N1436       N  0.28817586  0.28881498  0.79659066    -0.77000
C1437       C  0.48599982  0.30889350  0.79535881     0.83800
N1438       N  0.50629765  0.32601451  0.80879191    -0.78700
C1439       C  0.45319931  0.32733690  0.69544010     0.81300
N1440       N  0.42986417  0.30603107  0.69134679    -0.77000
C1441       C  0.41782847  0.29169625  0.70845156     0.83700
N1442       N  0.42987336  0.29865361  0.72932767    -0.77000
C1443       C  0.45495772  0.31950542  0.73374378     0.83800
N1444       N  0.46654680  0.33393070  0.71664767    -0.78700
C1445       C  0.38284348  0.18694474  0.82031706     0.81300
N1446       N  0.38769880  0.17911050  0.79916924    -0.77000
C1447       C  0.36533739  0.19195591  0.78200911     0.83700
N1448       N  0.33907177  0.21263878  0.78620617    -0.77000
C1449       C  0.33528297  0.22096468  0.80686998     0.83800
N1450       N  0.35743267  0.20812537  0.82418969    -0.78700
C1451       C  0.41644826  0.19131226  0.68522083     0.81300
N1452       N  0.42266853  0.21348703  0.67975484    -0.77000
C1453       C  0.40304070  0.22945901  0.69465788     0.83700
N1454       N  0.37762693  0.22299082  0.71472676    -0.77000
C1455       C  0.37262101  0.20131218  0.72060521     0.83800
N1456       N  0.39215782  0.18525405  0.70587093    -0.78700
N1457       N  0.52032250  0.57765937  0.12513379    -0.26200
N1458       N  0.53694609  0.58294858  0.14564428    -0.34100
C1459       C  0.55449900  0.56414056  0.15675097     0.02100
C1460       C  0.54939663  0.54623271  0.14240243     0.08100
C1461       C  0.52715327  0.55551781  0.12255450    -0.05000
H1462       H  0.57261403  0.56365809  0.17370233     0.08800
H1463       H  0.51824595  0.54694910  0.10711998     0.10000
Cu1464     Cu  0.53954251  0.61596606  0.15617924     0.44200
Cu1465     Cu  0.49544844  0.60070784  0.10072932     0.42000
Cu1466     Cu  0.51344504  0.65882605  0.11230740     0.43900
N1467       N  0.54335461  0.65035174  0.16099441    -0.33600
N1468       N  0.53335253  0.66555686  0.14537109    -0.27900
C1469       C  0.54003990  0.68599422  0.15426003    -0.04000
C1470       C  0.55521864  0.68358192  0.17644247     0.08200
C1471       C  0.55708264  0.66080401  0.18016201     0.02000
H1472       H  0.53530737  0.70147948  0.14512990     0.09700
H1473       H  0.56801584  0.65241345  0.19562719     0.08800
N1474       N  0.49939506  0.64682942  0.08048516    -0.35100
N1475       N  0.49198382  0.62526274  0.07657288    -0.27300
C1476       C  0.48724563  0.62206098  0.05473741    -0.02500
C1477       C  0.49236690  0.64262532  0.04418046     0.06100
C1478       C  0.49952692  0.65799757  0.06108529     0.04200
H1479       H  0.48240003  0.60579010  0.04719628     0.09300
H1480       H  0.50693365  0.67585738  0.05937154     0.08200
N1481       N  0.65557755  0.45400765  0.11806827    -0.26200
N1482       N  0.62749774  0.45023791  0.13792794    -0.34100
C1483       C  0.60422053  0.46995253  0.14638989     0.02100
C1484       C  0.61821143  0.48657152  0.13072523     0.08100
C1485       C  0.65034674  0.47571741  0.11314428    -0.05000
H1486       H  0.57577940  0.47182648  0.16205739     0.08800
H1487       H  0.66642623  0.48298319  0.09742789     0.10000
Cu1488     Cu  0.61870381  0.41731301  0.14954137     0.44200
Cu1489     Cu  0.49171069  0.42557969  0.09037571     0.42000
Cu1490     Cu  0.44264216  0.36847630  0.09733421     0.43900
N1491       N  0.41162308  0.37711631  0.14630354    -0.33600
N1492       N  0.42068148  0.36184075  0.13070811    -0.27900
C1493       C  0.41379223  0.34145367  0.13999509    -0.04000
C1494       C  0.39936422  0.34410991  0.16230715     0.08200
C1495       C  0.39824651  0.36685547  0.16568797     0.02000
H1496       H  0.41884077  0.32586391  0.13113780     0.09700
H1497       H  0.59005406  0.38026597  0.18852755     0.08800
N1498       N  0.47117996  0.38200912  0.06656255    -0.35100
N1499       N  0.49208855  0.40309697  0.06487189    -0.27300
C1500       C  0.50570641  0.40812663  0.04368868    -0.02500
C1501       C  0.49230092  0.38947678  0.03112519     0.06100
C1502       C  0.47034509  0.37303049  0.04610112     0.04200
H1503       H  0.52093890  0.42458395  0.03773109     0.09300
H1504       H  0.45338093  0.35612795  0.04241477     0.08200
N1505       N  0.57660074  0.57459020  0.90154623    -0.26200
N1506       N  0.55238351  0.57560094  0.88110836    -0.34100
C1507       C  0.55253479  0.55460555  0.87275134     0.02100
C1508       C  0.57810992  0.54018017  0.88908660     0.08100
C1509       C  0.59220138  0.55353163  0.90691218    -0.05000
H1510       H  0.53484480  0.55020276  0.85633150     0.08800
H1511       H  0.61173338  0.54826977  0.92292906     0.10000
Cu1512     Cu  0.52123480  0.60680362  0.86833952     0.44200
Cu1513     Cu  0.58304003  0.60064904  0.92286444     0.42000
Cu1514     Cu  0.50053834  0.65086870  0.91431807     0.43900
N1515       N  0.50072839  0.64113992  0.86400005    -0.33600
N1516       N  0.49377142  0.65605456  0.88008868    -0.27900
C1517       C  0.48180461  0.67622547  0.87106228    -0.04000
C1518       C  0.48101919  0.67421936  0.84834766     0.08200
C1519       C  0.49323236  0.65174374  0.84440138     0.02000
H1520       H  0.47411312  0.69138364  0.88047085     0.09700
H1521       H  0.49641939  0.64366960  0.82847473     0.08800
N1522       N  0.52081867  0.63977866  0.94650820    -0.35100
N1523       N  0.55415415  0.62040580  0.94875147    -0.27300
C1524       C  0.55909210  0.61507930  0.97010020    -0.02500
C1525       C  0.52799304  0.63195363  0.98232975     0.06100
C1526       C  0.50402263  0.64761668  0.96690677     0.04200
H1527       H  0.58166069  0.59957293  0.97625999     0.09300
H1528       H  0.47430067  0.66290608  0.97019026     0.08200
N1529       N  0.41511271  0.44467391  0.89185163    -0.26200
N1530       N  0.38683772  0.44140471  0.87211927    -0.34100
C1531       C  0.57503467  0.45921999  0.86352476     0.02100
C1532       C  0.58879031  0.47687323  0.87772101     0.08100
C1533       C  0.61154667  0.46679895  0.89716379    -0.05000
H1534       H  0.55483565  0.46032250  0.84681821     0.08800
H1535       H  0.62648068  0.47468452  0.91249521     0.10000
Cu1536     Cu  0.36941759  0.40877909  0.86018712     0.44200
Cu1537     Cu  0.44380316  0.41971223  0.91352943     0.42000
Cu1538     Cu  0.39914331  0.36381280  0.90297119     0.43900
N1539       N  0.35996689  0.37405792  0.85483854    -0.33600
N1540       N  0.37106935  0.35852909  0.87012530    -0.27900
C1541       C  0.36126955  0.33824765  0.86116305    -0.04000
C1542       C  0.34286799  0.34083802  0.83924236     0.08200
C1543       C  0.34239344  0.36376830  0.83575979     0.02000
H1544       H  0.36675874  0.32266214  0.87008316     0.09700
H1545       H  0.33015761  0.37233974  0.82048614     0.08800
N1546       N  0.43202822  0.37422116  0.93409926    -0.35100
N1547       N  0.45004409  0.39528663  0.93739489    -0.27300
C1548       C  0.46699214  0.39823232  0.95864152    -0.02500
C1549       C  0.45960891  0.37794614  0.96955785     0.06100
C1550       C  0.43698552  0.36304729  0.95343885     0.04200
H1551       H  0.48097299  0.41427844  0.96558708     0.09300
H1552       H  0.42356722  0.34556762  0.95571622     0.08200
C1553       C  0.61707977  0.69301146  0.32623294     0.81300
N1554       N  0.61388613  0.68600821  0.30472748    -0.77000
C1555       C  0.63186618  0.70036820  0.28802716     0.83700
N1556       N  0.65241048  0.72140679  0.29312829    -0.77000
C1557       C  0.65432720  0.72877142  0.31405547     0.83800
N1558       N  0.63655462  0.71459339  0.33086295    -0.78700
C1559       C  0.56997248  0.70152934  0.19227694     0.81300
N1560       N  0.55976894  0.72326976  0.18607946    -0.77000
C1561       C  0.57628073  0.74004518  0.20021006     0.83700
N1562       N  0.60278958  0.73478270  0.22035196    -0.77000
C1563       C  0.61214862  0.71341704  0.22692056     0.83800
N1564       N  0.59540335  0.69654953  0.21289393    -0.78700
C1565       C  0.43341019  0.82545682  0.33686765     0.81300
N1566       N  0.63352173  0.80858825  0.33499011    -0.77000
C1567       C  0.44540525  0.78690971  0.32912308     0.83700
N1568       N  0.46760992  0.79235436  0.30840211    -0.77000
C1569       C  0.47191197  0.81377250  0.30142331     0.83800
N1570       N  0.45488349  0.83053996  0.31568785    -0.78700
C1571       C  0.48515307  0.83470554  0.20152884     0.81300
N1572       N  0.47297580  0.84068364  0.22307986    -0.77000
C1573       C  0.49353930  0.82677652  0.23972737     0.83700
N1574       N  0.52613046  0.80718257  0.23451322    -0.77000
C1575       C  0.53754735  0.80085150  0.21341605     0.83800
N1576       N  0.51668371  0.81456141  0.19671420    -0.78700
C1577       C  0.52199644  0.33299529  0.32191361     0.81300
N1578       N  0.49423259  0.31181643  0.32464648    -0.77000
C1579       C  0.48128927  0.29893259  0.30661393     0.83700
N1580       N  0.49629567  0.30720409  0.28633773    -0.77000
C1581       C  0.52495034  0.32784245  0.28318890     0.83800
N1582       N  0.53811813  0.34085078  0.30112493    -0.78700
C1583       C  0.58991453  0.33109436  0.18585902     0.81300
N1584       N  0.56606548  0.33619812  0.20676325    -0.77000
C1585       C  0.55262161  0.31948847  0.22153248     0.83700
N1586       N  0.56305862  0.29809595  0.21536489    -0.77000
C1587       C  0.58797489  0.29268244  0.19496038     0.83800
N1588       N  0.60024603  0.30925673  0.17994958    -0.78700
C1589       C  0.42940661  0.19863463  0.32667540     0.81300
N1590       N  0.44394426  0.22021840  0.33258754    -0.77000
C1591       C  0.43229061  0.23717433  0.31808203     0.83700
N1592       N  0.40529035  0.23224364  0.29788676    -0.77000
C1593       C  0.39151773  0.21097885  0.29163644     0.83800
N1594       N  0.40441478  0.19397989  0.30597942    -0.78700
C1595       C  0.39695959  0.19120959  0.19258539     0.81300
N1596       N  0.40732974  0.21344782  0.18831123    -0.77000
C1597       C  0.41376754  0.22799192  0.20532554     0.83700
N1598       N  0.40805235  0.22040143  0.22621854    -0.77000
C1599       C  0.39610838  0.19861975  0.23090433     0.83800
N1600       N  0.39181230  0.18374966  0.21398824    -0.78700
N1601       N  0.36327739  0.94773203  0.12580977    -0.26200
N1602       N  0.37970911  0.94564997  0.14684292    -0.34100
C1603       C  0.37636979  0.96603780  0.15629554     0.02100
C1604       C  0.35672904  0.98152763  0.14023757     0.08100
C1605       C  0.34904920  0.96912971  0.12113482    -0.05000
H1606       H  0.38900272  0.96943971  0.17337054     0.08800
H1607       H  0.33671955  0.97506260  0.10472287     0.10000
Cu1608     Cu  0.40866872  0.91432724  0.15910923     0.44200
Cu1609     Cu  0.36876105  0.92198439  0.10375607     0.42000
Cu1610     Cu  0.44548080  0.86926026  0.11568558     0.43900
N1611       N  0.43754106  0.88112218  0.16519599    -0.33600
N1612       N  0.45116012  0.86541254  0.15027452    -0.27900
C1613       C  0.46934975  0.84643359  0.16096393    -0.04000
C1614       C  0.46665738  0.85030917  0.18350130     0.08200
C1615       C  0.44634414  0.87242321  0.18551859     0.02000
H1616       H  0.48370737  0.83092751  0.15289727     0.09700
H1617       H  0.43921261  0.88166782  0.20070059     0.08800
N1618       N  0.42983368  0.88025874  0.08300675    -0.35100
N1619       N  0.40001945  0.90005122  0.07963364    -0.27300
C1620       C  0.39839162  0.90449233  0.05803003    -0.02500
C1621       C  0.42792352  0.88670835  0.04676012     0.06100
C1622       C  0.44771467  0.87139814  0.06306445     0.04200
H1623       H  0.37890902  0.92001759  0.05101766     0.09300
H1624       H  0.47541324  0.85559947  0.06068010     0.08200
N1625       N  0.34385939  0.07756454  0.11000532    -0.26200
N1626       N  0.35186289  0.07964851  0.13153949    -0.34100
C1627       C  0.34930598  0.05911340  0.14086630     0.02100
C1628       C  0.33876924  0.04359764  0.12418648     0.08100
C1629       C  0.33548778  0.05594670  0.10498218    -0.05000
H1630       H  0.35509097  0.05578459  0.15832043     0.08800
H1631       H  0.32925024  0.04960616  0.08839820     0.10000
Cu1632     Cu  0.36675319  0.11103013  0.14564570     0.44200
Cu1633     Cu  0.34955552  0.10375275  0.08793736     0.42000
Cu1634     Cu  0.38685569  0.15905689  0.10543272     0.43900
N1635       N  0.37966372  0.14456927  0.15415910    -0.33600
N1636       N  0.38671444  0.16148019  0.14006427    -0.27900
C1637       C  0.39384825  0.18051869  0.15165134    -0.04000
C1638       C  0.39114475  0.17544171  0.17397802     0.08200
C1639       C  0.38208271  0.15252025  0.17492995     0.02000
H1640       H  0.40057269  0.19691572  0.14432857     0.09700
H1641       H  0.37753924  0.14231545  0.18965809     0.08800
N1642       N  0.58557795  0.15328416  0.07449570    -0.35100
N1643       N  0.56693058  0.13277978  0.06888469    -0.27300
C1644       C  0.57159137  0.13064062  0.04694045    -0.02500
C1645       C  0.59459501  0.15080649  0.03792393     0.06100
C1646       C  0.60241249  0.16493642  0.05592512     0.04200
H1647       H  0.56021276  0.11525536  0.03830135     0.09300
H1648       H  0.62144535  0.18207497  0.05559834     0.08200
N1649       N  0.52541557  0.94410866  0.90924949    -0.26200
N1650       N  0.51534761  0.94204185  0.88778878    -0.34100
C1651       C  0.51893536  0.96261656  0.87845132     0.02100
C1652       C  0.53241281  0.97807173  0.89506062     0.08100
C1653       C  0.53627327  0.96563700  0.91418245    -0.05000
H1654       H  0.51208308  0.96602968  0.86104940     0.08800
H1655       H  0.54459247  0.97188979  0.93071090     0.10000
Cu1656     Cu  0.49691688  0.91042005  0.87408583     0.44200
Cu1657     Cu  0.51923560  0.91825398  0.93171228     0.42000
Cu1658     Cu  0.47295291  0.86358563  0.91590366     0.43900
N1659       N  0.48133027  0.87644986  0.86686215    -0.33600
N1660       N  0.47238104  0.86015928  0.88157951    -0.27900
C1661       C  0.46292547  0.84071597  0.87085069    -0.04000
C1662       C  0.46624507  0.84479948  0.84839868     0.08200
C1663       C  0.47809852  0.86759116  0.84646706     0.02000
H1664       H  0.45405861  0.82474146  0.87886574     0.09700
H1665       H  0.48330419  0.87710807  0.83131233     0.08800
N1666       N  0.47979509  0.87264170  0.94906567    -0.35100
N1667       N  0.49729957  0.89332032  0.95438432    -0.27300
C1668       C  0.49560831  0.89546577  0.97637453    -0.02500
C1669       C  0.47602402  0.87510331  0.98569497     0.06100
C1670       C  0.46691553  0.86088303  0.96783229     0.04200
H1671       H  0.50721321  0.91091435  0.98487871     0.09300
H1672       H  0.44991952  0.84355577  0.96841666     0.08200
N1673       N  0.51368687  0.07429500  0.89572388    -0.26200
N1674       N  0.49426844  0.07682967  0.87496851    -0.34100
C1675       C  0.49602199  0.05666028  0.86502624     0.02100
C1676       C  0.51771529  0.04075013  0.88042541     0.08100
C1677       C  0.52836767  0.05273742  0.89970186    -0.05000
H1678       H  0.48052928  0.05366527  0.84809482     0.08800
H1679       H  0.54286094  0.04637193  0.91579038     0.10000
Cu1680     Cu  0.46335459  0.10837425  0.86362812     0.44200
Cu1681     Cu  0.51104317  0.09993726  0.91823527     0.42000
Cu1682     Cu  0.43855344  0.15425057  0.90631274     0.43900
N1683       N  0.43511081  0.14160758  0.85729325    -0.33600
N1684       N  0.42599047  0.15782811  0.87195431    -0.27900
C1685       C  0.40677377  0.17666715  0.86111212    -0.04000
C1686       C  0.40388989  0.17208145  0.83871896     0.08200
C1687       C  0.42224428  0.14977099  0.83700175     0.02000
H1688       H  0.39528908  0.19249437  0.86897117     0.09700
H1689       H  0.42530560  0.14001835  0.82202036     0.08800
N1690       N  0.45524569  0.14282530  0.93874377    -0.35100
N1691       N  0.48300010  0.12274339  0.94219252    -0.27300
C1692       C  0.48410023  0.11846458  0.96385606    -0.02500
C1693       C  0.45613581  0.13658714  0.97502222     0.06100
C1694       C  0.43811648  0.15195341  0.95861236     0.04200
H1695       H  0.50149657  0.10276268  0.97098201     0.09300
H1696       H  0.41160643  0.16795718  0.96085953     0.08200
C1697       C  0.53883931  0.00268773  0.89462395    -0.15400
C1698       C  0.51959231  0.01603658  0.87773069    -0.30600
H1699       H  0.55681867  0.01011522  0.90994686     0.13600
H1700       H  0.50114957  0.00881703  0.86232307     0.14200
C1701       C  0.61369992  0.15504030  0.01433249    -0.15400
C1702       C  0.43986244  0.13585594  0.99897607    -0.30600
H1703       H  0.40916375  0.16940581  0.00501053     0.13600
H1704       H  0.63696575  0.12125282  0.00894203     0.14200
C1705       C  0.44263972  0.88765849  0.02275581    -0.15400
C1706       C  0.46191638  0.87060998  0.00954705    -0.30600
H1707       H  0.43459793  0.90401564  0.01537741     0.13600
H1708       H  0.46505546  0.85369630  0.01597082     0.14200
C1709       C  0.33504579  0.01900443  0.12485531    -0.15400
C1710       C  0.35285169  0.00621868  0.14230769    -0.30600
H1711       H  0.32013170  0.01118676  0.10942517     0.13600
H1712       H  0.36809023  0.01389586  0.15781862     0.14200
C1713       C  0.39082100  0.19218970  0.25461277    -0.15400
C1714       C  0.36555188  0.20775021  0.26887130    -0.30600
H1715       H  0.41903623  0.17735968  0.26042242     0.13600
H1716       H  0.33760068  0.22224931  0.26207092     0.14200
C1717       C  0.42425344  0.25219455  0.20273886    -0.15400
C1718       C  0.40421982  0.26477331  0.18541369    -0.30600
H1719       H  0.43977874  0.26067048  0.21787694     0.13600
H1720       H  0.58512613  0.26201859  0.17377706     0.14200
C1721       C  0.44802237  0.27638781  0.30723676    -0.15400
C1722       C  0.45478886  0.26066117  0.32305209    -0.30600
H1723       H  0.42267322  0.27170305  0.29174867     0.13600
H1724       H  0.48241242  0.26448957  0.33840368     0.14200
C1725       C  0.54547056  0.33466341  0.26019945    -0.15400
C1726       C  0.51751423  0.32281985  0.24328087    -0.30600
H1727       H  0.58913362  0.34681820  0.25740280     0.13600
H1728       H  0.47517654  0.31043886  0.24693279     0.14200
C1729       C  0.50195380  0.81727811  0.27895548    -0.15400
C1730       C  0.47635090  0.83145135  0.26345220    -0.30600
H1731       H  0.53996832  0.80423833  0.27387326     0.13600
H1732       H  0.43699152  0.84437490  0.26780644     0.14200
C1733       C  0.55849351  0.76379506  0.19520615    -0.15400
C1734       C  0.57562951  0.77945184  0.21020810    -0.30600
H1735       H  0.52263630  0.76776925  0.18150238     0.13600
H1736       H  0.61042537  0.77481090  0.22397263     0.14200
C1737       C  0.67980777  0.75187817  0.31692534    -0.15400
C1738       C  0.64427669  0.76769292  0.32856116    -0.30600
H1739       H  0.72011690  0.75719220  0.30455776     0.13600
H1740       H  0.60280786  0.76319020  0.34085149     0.14200
C1741       C  0.62342565  0.69466233  0.26420988    -0.15400
C1742       C  0.64313105  0.71024863  0.24906687    -0.30600
H1743       H  0.59199730  0.68000974  0.25950073     0.13600
H1744       H  0.67458921  0.72467192  0.25445361     0.14200
C1745       C  0.57660179  0.50112459  0.87373595    -0.15400
C1746       C  0.58907051  0.51583111  0.88996109    -0.30600
H1747       H  0.55642743  0.50675485  0.85785720     0.13600
H1748       H  0.60916276  0.50985418  0.90567102     0.14200
C1749       C  0.46609052  0.37390973  0.99366369    -0.15400
C1750       C  0.49398381  0.38981156  0.00679697    -0.30600
H1751       H  0.44455103  0.35847506  0.00067370     0.13600
H1752       H  0.51636876  0.40495898  0.99946207     0.14200
C1753       C  0.49786663  0.64686215  0.02004062    -0.15400
C1754       C  0.51721368  0.63020067  0.00642392    -0.30600
H1755       H  0.48979642  0.66364035  0.01366819     0.13600
H1756       H  0.52970179  0.61393956  0.01339092     0.14200
C1757       C  0.57165027  0.52272306  0.14644029    -0.15400
C1758       C  0.59406799  0.51004263  0.12942505    -0.30600
H1759       H  0.57276083  0.51624218  0.16319139     0.13600
H1760       H  0.59726092  0.51746862  0.11306703     0.14200
C1761       C  0.37586027  0.18502090  0.75860442    -0.15400
C1762       C  0.34191828  0.19680978  0.74272382    -0.30600
H1763       H  0.41883756  0.17313944  0.75441000     0.13600
H1764       H  0.30039127  0.20885676  0.74774509     0.14200
C1765       C  0.39042566  0.26865325  0.70572685    -0.15400
C1766       C  0.41421069  0.25382824  0.69045421    -0.30600
H1767       H  0.35758255  0.26265046  0.71964327     0.13600
H1768       H  0.44850813  0.25927624  0.67664806     0.14200
C1769       C  0.32981503  0.26002734  0.82252933    -0.15400
C1770       C  0.30613526  0.24388668  0.80880977    -0.30600
H1771       H  0.36559316  0.25600348  0.83622478     0.13600
H1772       H  0.27119950  0.24865969  0.79512321     0.14200
C1773       C  0.45220135  0.31151291  0.77341069    -0.15400
C1774       C  0.47422036  0.32532164  0.75698561    -0.30600
H1775       H  0.41532493  0.29785563  0.76928430     0.13600
H1776       H  0.31301010  0.33903903  0.75409055     0.14200
C1777       C  0.46428510  0.99939419  0.64743230    -0.15400
C1778       C  0.48902747  0.01259467  0.63093296    -0.30600
H1779       H  0.45496808  0.00617108  0.66381814     0.13600
H1780       H  0.50228644  0.00503365  0.61511929     0.14200
C1781       C  0.51514936  0.14448438  0.49929469    -0.15400
C1782       C  0.53743245  0.12835365  0.51314701    -0.30600
H1783       H  0.50156171  0.16096611  0.50551035     0.13600
H1784       H  0.55358911  0.11231328  0.50637895     0.14200
C1785       C  0.54846302  0.89396928  0.49794256    -0.15400
C1786       C  0.56960268  0.87650847  0.51034368    -0.30600
H1787       H  0.53518975  0.90967418  0.50593414     0.13600
H1788       H  0.57999755  0.86032540  0.50294174     0.14200
C1789       C  0.42034892  0.01833107  0.37431024    -0.15400
C1790       C  0.39630608  0.00541687  0.39111689    -0.30600
H1791       H  0.42676632  0.01147789  0.35783934     0.13600
H1792       H  0.38566984  0.01315358  0.40701398     0.14200
C1793       C  0.51564406  0.51470361  0.64636256    -0.15400
C1794       C  0.49556413  0.50189641  0.62923145    -0.30600
H1795       H  0.51325739  0.50811656  0.66307204     0.13600
H1796       H  0.49363380  0.50931274  0.61286938     0.14200
C1797       C  0.47249607  0.36492308  0.50387140    -0.15400
C1798       C  0.44481974  0.38139493  0.51653011    -0.30600
H1799       H  0.48257096  0.34843299  0.51067390     0.13600
H1800       H  0.43174139  0.39723159  0.50871106     0.14200
C1801       C  0.39837397  0.64685386  0.51534673    -0.15400
C1802       C  0.42181165  0.62995773  0.52807122    -0.30600
H1803       H  0.38256562  0.66277217  0.52245849     0.13600
H1804       H  0.44029257  0.61463494  0.52025328     0.14200
C1805       C  0.56138104  0.51762574  0.38424640    -0.15400
C1806       C  0.56111646  0.50296937  0.40113195    -0.30600
H1807       H  0.56218004  0.51162960  0.36735839     0.13600
H1808       H  0.56077295  0.50923379  0.41789787     0.14200
C1809       C  0.46534913  0.82614107  0.76870006    -0.15400
C1810       C  0.48846645  0.80982441  0.75510258    -0.30600
H1811       H  0.44147299  0.84143673  0.76232896     0.13600
H1812       H  0.51184536  0.79486625  0.76249442     0.14200
C1813       C  0.40068040  0.76901153  0.82125729    -0.15400
C1814       C  0.43010224  0.75394904  0.83510364    -0.30600
H1815       H  0.37054456  0.76268969  0.80713849     0.13600
H1816       H  0.46096196  0.75928652  0.84942390     0.14200
C1817       C  0.60450534  0.76455409  0.69584076    -0.15400
C1818       C  0.58965501  0.75118225  0.71326669    -0.30600
H1819       H  0.59898471  0.75830087  0.67914049     0.13600
H1820       H  0.59294246  0.75839762  0.72967061     0.14200
C1821       C  0.49631217  0.69103483  0.75883715    -0.15400
C1822       C  0.46699511  0.70685399  0.77206185    -0.30600
H1823       H  0.50761594  0.67435177  0.76496234     0.13600
H1824       H  0.45476544  0.72294625  0.76457676     0.14200
C1825       C  0.74590987  0.69420573  0.69771590     0.81300
N1826       N  0.72395695  0.68577840  0.71775856    -0.77000
C1827       C  0.71611605  0.69943220  0.73536389     0.83700
N1828       N  0.73245984  0.72133764  0.73290859    -0.77000
C1829       C  0.75674913  0.73000010  0.71354226     0.83800
N1830       N  0.76315779  0.71644030  0.69556471    -0.78700
C1831       C  0.66717540  0.69087287  0.83114939     0.81300
N1832       N  0.65224389  0.71143890  0.83966409    -0.77000
C1833       C  0.63489945  0.72856698  0.82621477     0.83700
N1834       N  0.63499202  0.72523315  0.80424574    -0.77000
C1835       C  0.65250467  0.70536670  0.79526602     0.83800
N1836       N  0.66905960  0.68777062  0.80871509    -0.78700
C1837       C  0.66057384  0.82438501  0.82307946     0.81300
N1838       N  0.63449395  0.80421350  0.83020543    -0.77000
C1839       C  0.62215128  0.78773048  0.81549874     0.83700
N1840       N  0.63746234  0.79108094  0.79398347    -0.77000
C1841       C  0.66414439  0.81071859  0.78652015     0.83800
N1842       N  0.67550467  0.82777718  0.80103764    -0.78700
C1843       C  0.63391880  0.82586390  0.68708731     0.81300
N1844       N  0.62226558  0.80373706  0.68289756    -0.77000
C1845       C  0.62359659  0.78857962  0.69967385     0.83700
N1846       N  0.63788646  0.79584341  0.72047208    -0.77000
C1847       C  0.64945964  0.81783140  0.72484538     0.83800
N1848       N  0.64615491  0.83283277  0.70811193    -0.78700
N1849       N  0.74706881  0.57782608  0.40938293    -0.26200
N1850       N  0.76305596  0.57845289  0.38808575    -0.34100
C1851       C  0.76625893  0.55720679  0.38056478     0.02100
C1852       C  0.75142271  0.54290663  0.39825844     0.08100
C1853       C  0.73966862  0.55663914  0.41606866    -0.05000
H1854       H  0.77932942  0.55257922  0.36373515     0.08800
H1855       H  0.72807520  0.55157563  0.43292065     0.10000
Cu1856     Cu  0.78043286  0.60929134  0.37242995     0.44200
Cu1857     Cu  0.74167171  0.60507729  0.42951370     0.42000
Cu1858     Cu  0.79326129  0.65838409  0.41242033     0.50300
N1859       N  0.79154622  0.64306598  0.36361892    -0.33600
N1860       N  0.79643129  0.66003712  0.37760661    -0.27900
C1861       C  0.80419966  0.67904943  0.36587176    -0.04000
C1862       C  0.80390745  0.67403216  0.34355714     0.08200
C1863       C  0.79576340  0.65106090  0.34275414     0.02000
H1864       H  0.81021300  0.69544001  0.37311074     0.09700
H1865       H  0.79421869  0.64082768  0.32808474     0.08800
N1866       N  0.78325396  0.65024915  0.44617322    -0.35100
N1867       N  0.76310464  0.62979974  0.45171976    -0.27300
C1868       C  0.76290822  0.62754073  0.47368566    -0.02500
C1869       C  0.58637584  0.64421306  0.48245886     0.06100
C1870       C  0.58953549  0.65913334  0.46476702     0.04200
H1871       H  0.74897677  0.61216319  0.48219410     0.09300
H1872       H  0.59733912  0.67702364  0.46567310     0.08200
N1873       N  0.75636608  0.44648633  0.40379967    -0.26200
N1874       N  0.76513122  0.44298224  0.38244796    -0.34100
C1875       C  0.77172542  0.46285055  0.37203392     0.02100
C1876       C  0.76639665  0.47963858  0.38765772     0.08100
C1877       C  0.75704149  0.46852460  0.40764740    -0.05000
H1878       H  0.77842812  0.46493714  0.35438111     0.08800
H1879       H  0.75013004  0.47571375  0.42387318     0.10000
Cu1880     Cu  0.76366543  0.41091372  0.36958956     0.44200
Cu1881     Cu  0.74059602  0.42118742  0.42665823     0.42000
Cu1882     Cu  0.72327420  0.36404796  0.40904567     0.43900
N1883       N  0.74921426  0.37776988  0.36055084    -0.33600
N1884       N  0.73387080  0.36096102  0.37418517    -0.27900
C1885       C  0.72496916  0.34232227  0.36195080    -0.04000
C1886       C  0.73561654  0.34766597  0.33975150     0.08200
C1887       C  0.75082032  0.37026670  0.33961599     0.02000
H1888       H  0.71083211  0.32608244  0.36867291     0.09700
H1889       H  0.76066797  0.38069588  0.32525922     0.08800
N1890       N  0.71196869  0.37394470  0.44254832    -0.35100
N1891       N  0.71819051  0.39516799  0.44821565    -0.27300
C1892       C  0.70651820  0.39728503  0.47000455    -0.02500
C1893       C  0.69181875  0.37642604  0.47899078     0.06100
C1894       C  0.69650096  0.36190987  0.46106419     0.04200
H1895       H  0.70864766  0.41305550  0.47862737     0.09300
H1896       H  0.68756938  0.34404230  0.46141700     0.08200
N1897       N  0.77704687  0.57395897  0.62642890    -0.26200
N1898       N  0.75208580  0.57932540  0.64620460    -0.34100
C1899       C  0.73057208  0.56056232  0.65690180     0.02100
C1900       C  0.74162240  0.54259676  0.64287302     0.08100
C1901       C  0.77137733  0.55180674  0.62371712    -0.05000
H1902       H  0.70577176  0.56013722  0.67321804     0.08800
H1903       H  0.78641701  0.54317073  0.60868662     0.10000
Cu1904     Cu  0.74662853  0.61263540  0.65517006     0.44200
Cu1905     Cu  0.81086806  0.59767725  0.60372267     0.42000
Cu1906     Cu  0.77895504  0.65700210  0.61185330     0.43900
N1907       N  0.75154422  0.64677954  0.66059746    -0.33600
N1908       N  0.76349235  0.66288690  0.64588967    -0.27900
C1909       C  0.76414723  0.68267829  0.65664812    -0.04000
C1910       C  0.75179340  0.67861412  0.67898262     0.08200
C1911       C  0.74406621  0.65577366  0.68069765     0.02000
H1912       H  0.77274507  0.69875739  0.64882126     0.09700
H1913       H  0.73401653  0.64621362  0.69562597     0.08800
N1914       N  0.79868266  0.64263443  0.58065405    -0.35100
N1915       N  0.81299238  0.62107521  0.57869669    -0.27300
C1916       C  0.82139399  0.61593321  0.55735230    -0.02500
C1917       C  0.61173791  0.63212547  0.54480867     0.06100
C1918       C  0.59972485  0.64889034  0.56040069     0.04200
H1919       H  0.83050263  0.59918561  0.55125925     0.09300
H1920       H  0.59176482  0.66648867  0.55715582     0.08200
N1921       N  0.64068982  0.44980786  0.61835877    -0.26200
N1922       N  0.66545751  0.44671753  0.63855154    -0.34100
C1923       C  0.68758162  0.46666123  0.64661826     0.02100
C1924       C  0.67660322  0.48277880  0.63038868     0.08100
C1925       C  0.64727038  0.47139223  0.61281559    -0.05000
H1926       H  0.71315745  0.46901830  0.66249684     0.08800
H1927       H  0.63385425  0.47820304  0.59678683     0.10000
Cu1928     Cu  0.67162362  0.41442772  0.65163367     0.44200
Cu1929     Cu  0.60712359  0.42457171  0.59783135     0.42000
Cu1930     Cu  0.65391482  0.36867546  0.60872703     0.43900
N1931       N  0.66791829  0.38006871  0.65821187    -0.33600
N1932       N  0.66067199  0.36397789  0.64334338    -0.27900
C1933       C  0.65627004  0.34420943  0.65409023    -0.04000
C1934       C  0.66157535  0.34793391  0.67662398     0.08200
C1935       C  0.66898076  0.37084407  0.67854745     0.02000
H1936       H  0.64867116  0.32825535  0.64608785     0.09700
H1937       H  0.67272514  0.38024449  0.69371580     0.08800
N1938       N  0.63796255  0.38042888  0.57614918    -0.35100
N1939       N  0.61623639  0.40124106  0.57319148    -0.27300
C1940       C  0.61205827  0.40573547  0.55159424    -0.02500
C1941       C  0.63282678  0.38707459  0.53985511     0.06100
C1942       C  0.64899026  0.37110387  0.55596344     0.04200
H1943       H  0.59950975  0.42204127  0.54486699     0.09300
H1944       H  0.66987632  0.35442741  0.55323722     0.08200
N1945       N  0.76223352  0.95015917  0.39321505    -0.26200
N1946       N  0.78549186  0.94496980  0.37319017    -0.34100
C1947       C  0.80219702  0.96395647  0.36211904     0.02100
C1948       C  0.78951986  0.98183820  0.37612825     0.08100
C1949       C  0.76378910  0.97235649  0.39562854    -0.05000
H1950       H  0.82530764  0.96462542  0.34559363     0.08800
H1951       H  0.74937106  0.98082189  0.41080546     0.10000
Cu1952     Cu  0.79758429  0.91183037  0.36419410     0.44200
Cu1953     Cu  0.73774074  0.92706726  0.41741955     0.42000
Cu1954     Cu  0.78777751  0.87026801  0.41140088     0.43900
N1955       N  0.80788641  0.87746495  0.36135994    -0.33600
N1956       N  0.80410105  0.86272290  0.37774884    -0.27900
C1957       C  0.81359314  0.84216130  0.36922990    -0.04000
C1958       C  0.82412489  0.84410380  0.34660249     0.08200
C1959       C  0.82026222  0.86667799  0.34223595     0.02000
H1960       H  0.81396301  0.82691352  0.37886611     0.09700
H1961       H  0.82640038  0.87475892  0.32631745     0.08800
N1962       N  0.76584039  0.88447332  0.44249365    -0.35100
N1963       N  0.74482294  0.90553171  0.44380460    -0.27300
C1964       C  0.73610164  0.91125965  0.46499971    -0.02500
C1965       C  0.75258512  0.89312156  0.47805845     0.06100
C1966       C  0.77144272  0.87622044  0.46328110     0.04200
H1967       H  0.72188559  0.92787094  0.47056069     0.09300
H1968       H  0.78976802  0.85953362  0.46730268     0.08200
N1969       N  0.67429090  0.08050495  0.40227115    -0.26200
N1970       N  0.65133732  0.08385184  0.38192389    -0.34100
C1971       C  0.63394825  0.06388290  0.37296923     0.02100
C1972       C  0.64664478  0.04745988  0.38873915     0.08100
C1973       C  0.67188611  0.05867694  0.40696543    -0.05000
H1974       H  0.61154113  0.06161820  0.35664747     0.08800
H1975       H  0.68574375  0.05151880  0.42281349     0.10000
Cu1976     Cu  0.64308108  0.11621655  0.36951942     0.44200
Cu1977     Cu  0.70196307  0.10535916  0.42392308     0.42000
Cu1978     Cu  0.67628431  0.16195461  0.41175940     0.43900
N1979       N  0.64461969  0.15047951  0.36324671    -0.33600
N1980       N  0.65718598  0.16640164  0.37794549    -0.27900
C1981       C  0.65483824  0.18631665  0.36763754    -0.04000
C1982       C  0.63973902  0.18285854  0.34557628     0.08200
C1983       C  0.63348732  0.15998870  0.34337032     0.02000
H1984       H  0.66275569  0.20222132  0.37571190     0.09700
H1985       H  0.62174374  0.15087740  0.32841617     0.08800
N1986       N  0.69613264  0.15098628  0.44400075    -0.35100
N1987       N  0.70727516  0.12956133  0.44774610    -0.27300
C1988       C  0.71721777  0.12611048  0.46934237    -0.02500
C1989       C  0.71244578  0.14640634  0.48014010     0.06100
C1990       C  0.69848428  0.16189431  0.46351007     0.04200
H1991       H  0.72476154  0.10975165  0.47656311     0.09300
H1992       H  0.68976850  0.17964143  0.46550575     0.08200
N1993       N  0.84169359  0.95033819  0.61827458    -0.26200
N1994       N  0.84558731  0.94586994  0.63959445    -0.34100
C1995       C  0.65658631  0.96198101  0.64263057     0.02100
C1996       C  0.66109525  0.97799018  0.62592322     0.08100
C1997       C  0.65358941  0.96631745  0.60657354    -0.05000
H1998       H  0.66127653  0.96470102  0.66020249     0.08800
H1999       H  0.65471444  0.97307108  0.58997780     0.10000
Cu2000     Cu  0.84053959  0.91308348  0.65135274     0.44200
Cu2001     Cu  0.82712058  0.92628583  0.59416525     0.42000
Cu2002     Cu  0.82266514  0.86845899  0.60840210     0.43900
N2003       N  0.83594844  0.87877359  0.65762267    -0.33600
N2004       N  0.82967845  0.86301717  0.64241922    -0.27900
C2005       C  0.82789279  0.84294716  0.65250191    -0.04000
C2006       C  0.83351128  0.84614085  0.67502672     0.08200
C2007       C  0.83853591  0.86902661  0.67767933     0.02000
H2008       H  0.82279871  0.82715570  0.64401815     0.09700
H2009       H  0.84350956  0.87798162  0.69307420     0.08800
N2010       N  0.80970462  0.87967177  0.57599282    -0.35100
N2011       N  0.81038830  0.90121497  0.57122847    -0.27300
C2012       C  0.79955012  0.90396923  0.54951922    -0.02500
C2013       C  0.79160520  0.88313918  0.53987130     0.06100
C2014       C  0.79891392  0.86806576  0.55718890     0.04200
H2015       H  0.79877786  0.92007629  0.54139988     0.09300
H2016       H  0.79598498  0.85004863  0.55621016     0.08200
N2017       N  0.71088673  0.07256152  0.62503686    -0.26200
N2018       N  0.68341701  0.07671872  0.64484008    -0.34100
C2019       C  0.67059541  0.05708276  0.65531032     0.02100
C2020       C  0.69037000  0.03983717  0.64115905     0.08100
C2021       C  0.71595653  0.05047122  0.62219356    -0.05000
H2022       H  0.64570535  0.05545444  0.67154501     0.08800
H2023       H  0.73542862  0.04289261  0.60705814     0.10000
Cu2024     Cu  0.66201269  0.10948021  0.65429445     0.44200
Cu2025     Cu  0.73436480  0.09659343  0.60154655     0.42000
Cu2026     Cu  0.67883639  0.15251435  0.60832104     0.43900
N2027       N  0.64892497  0.14389982  0.65759587    -0.33600
N2028       N  0.65536583  0.15898244  0.64157586    -0.27900
C2029       C  0.64441785  0.17940076  0.65021309    -0.04000
C2030       C  0.63017871  0.17709469  0.67257318     0.08200
C2031       C  0.63332133  0.15441679  0.67667357     0.02000
H2032       H  0.64631794  0.19480914  0.64083754     0.09700
H2033       H  0.62514457  0.14611996  0.69240785     0.08800
N2034       N  0.71033480  0.13998587  0.57750700    -0.35100
N2035       N  0.73323307  0.11914853  0.57578804    -0.27300
C2036       C  0.74897420  0.11464604  0.55463182    -0.02500
C2037       C  0.73500255  0.13340733  0.54211988     0.06100
C2038       C  0.71037283  0.14934188  0.55712763     0.04200
H2039       H  0.76649728  0.09848590  0.54863369     0.09300
H2040       H  0.69248454  0.16616598  0.55350851     0.08200
C2041       C  0.73333839  0.32226399  0.82800253     0.81300
N2042       N  0.54080669  0.29962075  0.83608942    -0.77000
C2043       C  0.52026526  0.28270380  0.82265236     0.83700
N2044       N  0.49283539  0.28768199  0.80257369    -0.77000
C2045       C  0.68557409  0.30949885  0.79428061     0.83800
N2046       N  0.70607563  0.32672593  0.80747994    -0.78700
C2047       C  0.65360816  0.33138782  0.69476959     0.81300
N2048       N  0.62923531  0.31024876  0.69024462    -0.77000
C2049       C  0.61706580  0.29558075  0.70707948     0.83700
N2050       N  0.62962024  0.30199005  0.72799301    -0.77000
C2051       C  0.65540116  0.32254492  0.73293466     0.83800
N2052       N  0.66739912  0.33742913  0.71617723    -0.78700
C2053       C  0.58483866  0.18640238  0.82297297     0.81300
N2054       N  0.58835979  0.17967533  0.80137583    -0.77000
C2055       C  0.56383189  0.19344272  0.78509123     0.83700
N2056       N  0.53650621  0.21361975  0.79069442    -0.77000
C2057       C  0.53404332  0.22069175  0.81175964     0.83800
N2058       N  0.55862512  0.20715354  0.82810251    -0.78700
C2059       C  0.61320079  0.19494855  0.68842189     0.81300
N2060       N  0.61931578  0.21677440  0.68199065    -0.77000
C2061       C  0.60068277  0.23335600  0.69619737     0.83700
N2062       N  0.57628140  0.22784250  0.71672228    -0.77000
C2063       C  0.57137617  0.20636087  0.72353035     0.83800
N2064       N  0.59020190  0.18972898  0.70938408    -0.78700
N2065       N  0.72445233  0.57426488  0.12893835    -0.26200
N2066       N  0.74816048  0.57934497  0.14879963    -0.34100
C2067       C  0.76772787  0.56031963  0.15923090     0.02100
C2068       C  0.75643022  0.54263749  0.14488960     0.08100
C2069       C  0.72865133  0.55222044  0.12594371    -0.05000
H2070       H  0.79180129  0.55954023  0.17547901     0.08800
H2071       H  0.71459780  0.54395446  0.11070250     0.10000
Cu2072     Cu  0.75558686  0.61258073  0.15808956     0.44200
Cu2073     Cu  0.69537739  0.59714937  0.10545997     0.42000
Cu2074     Cu  0.73058462  0.65417701  0.11077588     0.43900
N2075       N  0.75376222  0.64719265  0.16058377    -0.33600
N2076       N  0.74436337  0.66168674  0.14422059    -0.27900
C2077       C  0.74603943  0.68246809  0.15256802    -0.04000
C2078       C  0.75736804  0.68099752  0.17505560     0.08200
C2079       C  0.76206166  0.65845900  0.17956899     0.02000
H2080       H  0.74047829  0.69757436  0.14288025     0.09700
H2081       H  0.77121957  0.65075086  0.19548326     0.08800
N2082       N  0.71183287  0.63982290  0.07994000    -0.35100
N2083       N  0.69650789  0.61830933  0.07887305    -0.27300
C2084       C  0.68900850  0.61225341  0.05780589    -0.02500
C2085       C  0.70015165  0.63073520  0.04462818     0.06100
C2086       C  0.71465599  0.64815278  0.05913739     0.04200
H2087       H  0.67923230  0.59529980  0.05240780     0.09300
H2088       H  0.72834824  0.66524966  0.05492532     0.08200
N2089       N  0.85878325  0.45208432  0.11515170    -0.26200
N2090       N  0.83276541  0.44788327  0.13516184    -0.34100
C2091       C  0.81057135  0.46724364  0.14439471     0.02100
C2092       C  0.82297070  0.48418094  0.12911379     0.08100
C2093       C  0.85307907  0.47392517  0.11084850    -0.05000
H2094       H  0.78404367  0.46865649  0.16040301     0.08800
H2095       H  0.86771021  0.48167908  0.09523810     0.10000
Cu2096     Cu  0.82399050  0.41532143  0.14654960     0.44200
Cu2097     Cu  0.69188673  0.42983282  0.09673295     0.42000
Cu2098     Cu  0.64800159  0.37360596  0.10448012     0.43900
N2099       N  0.61473065  0.38249085  0.15373074    -0.33600
N2100       N  0.62522062  0.36729716  0.13808350    -0.27900
C2101       C  0.61849928  0.34681247  0.14721204    -0.04000
C2102       C  0.60284722  0.34909886  0.16950231     0.08200
C2103       C  0.60083482  0.37191292  0.17302368     0.02000
H2104       H  0.62426710  0.33133148  0.13820980     0.09700
H2105       H  0.79466089  0.37932163  0.18610213     0.08800
N2106       N  0.67421221  0.38642248  0.07300963    -0.35100
N2107       N  0.69338173  0.40761504  0.07106994    -0.27300
C2108       C  0.70528170  0.41266686  0.04978621    -0.02500
C2109       C  0.69274336  0.39387050  0.03730541     0.06100
C2110       C  0.67298966  0.37733345  0.05255290     0.04200
H2111       H  0.71855255  0.42923040  0.04370642     0.09300
H2112       H  0.65694243  0.36031577  0.04902434     0.08200
N2113       N  0.76835051  0.57458254  0.90490343    -0.26200
N2114       N  0.75339170  0.57605156  0.88363936    -0.34100
C2115       C  0.76031478  0.55550448  0.87460815     0.02100
C2116       C  0.78096015  0.54078572  0.89122251     0.08100
C2117       C  0.78553666  0.55352160  0.90998147    -0.05000
H2118       H  0.75126949  0.55165319  0.85741588     0.08800
H2119       H  0.79932935  0.54779743  0.92638917     0.10000
Cu2120     Cu  0.72503904  0.60663157  0.86943633     0.44200
Cu2121     Cu  0.76220301  0.59994429  0.92754962     0.42000
Cu2122     Cu  0.70778013  0.65226821  0.91292462     0.43900
N2123       N  0.70410837  0.64040320  0.86336670    -0.33600
N2124       N  0.69834137  0.65584866  0.87894058    -0.27900
C2125       C  0.68514214  0.67561048  0.86945408    -0.04000
C2126       C  0.68248676  0.67281783  0.84690522     0.08200
C2127       C  0.69467953  0.65027135  0.84348459     0.02000
H2128       H  0.67794173  0.69103266  0.87847456     0.09700
H2129       H  0.69642137  0.64167591  0.82781241     0.08800
N2130       N  0.72200019  0.64429540  0.94595330    -0.35100
N2131       N  0.74284481  0.62389297  0.95105433    -0.27300
C2132       C  0.74601149  0.62175239  0.97302117    -0.02500
C2133       C  0.72603541  0.64191899  0.98248023     0.06100
C2134       C  0.71170240  0.65598884  0.96476539     0.04200
H2135       H  0.76120883  0.60648917  0.98140022     0.09300
H2136       H  0.69302154  0.67311412  0.96551773     0.08200
N2137       N  0.61086100  0.44463565  0.89446472    -0.26200
N2138       N  0.58892359  0.43991100  0.87430652    -0.34100
C2139       C  0.77627354  0.46072092  0.86353355     0.02100
C2140       C  0.79036330  0.47793828  0.87823527     0.08100
C2141       C  0.81117383  0.46728708  0.89753459    -0.05000
H2142       H  0.75715796  0.46236702  0.84675195     0.08800
H2143       H  0.82526752  0.47471921  0.91316157     0.10000
Cu2144     Cu  0.57745504  0.40696312  0.86412772     0.44200
Cu2145     Cu  0.63555453  0.42132467  0.91844520     0.42000
Cu2146     Cu  0.61046367  0.36387083  0.90846646     0.43900
N2147       N  0.56995405  0.37252446  0.86000789    -0.33600
N2148       N  0.58202012  0.35733396  0.87554678    -0.27900
C2149       C  0.57178606  0.33693060  0.86680364    -0.04000
C2150       C  0.55221680  0.33933587  0.84487123     0.08200
C2151       C  0.55153533  0.36210901  0.84115236     0.02000
H2152       H  0.57744718  0.32142766  0.87585162     0.09700
H2153       H  0.53824933  0.37054567  0.82588676     0.08800
N2154       N  0.63701131  0.37602981  0.93986919    -0.35100
N2155       N  0.64716635  0.39762090  0.94298194    -0.27300
C2156       C  0.66176173  0.40139500  0.96431464    -0.02500
C2157       C  0.66106196  0.38115425  0.97552560     0.06100
C2158       C  0.64476233  0.36539904  0.95944869     0.04200
H2159       H  0.67008787  0.41786512  0.97111527     0.09300
H2160       H  0.63805573  0.34760119  0.96189578     0.08200
C2161       C  0.81615160  0.69001529  0.32516911     0.81300
N2162       N  0.80836981  0.68381598  0.30347341    -0.77000
C2163       C  0.82394420  0.69885538  0.28700458     0.83700
N2164       N  0.84717815  0.71949321  0.29258502    -0.77000
C2165       C  0.85376393  0.72589106  0.31371330     0.83800
N2166       N  0.83794763  0.71123594  0.33016106    -0.78700
C2167       C  0.76702891  0.69955823  0.19052203     0.81300
N2168       N  0.75527787  0.72091478  0.18347708    -0.77000
C2169       C  0.76783367  0.73833863  0.19717197     0.83700
N2170       N  0.79213230  0.73410629  0.21789102    -0.77000
C2171       C  0.80275926  0.71298806  0.22531634     0.83800
N2172       N  0.78987620  0.69554617  0.21160268    -0.78700
C2173       C  0.63843040  0.83010266  0.32750125     0.81300
N2174       N  0.83688159  0.80440556  0.33792275    -0.77000
C2175       C  0.65292367  0.79141610  0.32160862     0.83700
N2176       N  0.67654769  0.79598665  0.30080166    -0.77000
C2177       C  0.67998618  0.81711103  0.29290722     0.83800
N2178       N  0.66090189  0.83438290  0.30627675    -0.78700
C2179       C  0.68747510  0.83460054  0.19231405     0.81300
N2180       N  0.67675513  0.84139854  0.21371556    -0.77000
C2181       C  0.69700903  0.82799952  0.23078291     0.83700
N2182       N  0.72758633  0.80802653  0.22618728    -0.77000
C2183       C  0.73727072  0.80070016  0.20538463     0.83800
N2184       N  0.71697358  0.81394192  0.18812566    -0.78700
C2185       C  0.72637625  0.33296813  0.32030181     0.81300
N2186       N  0.69732754  0.31207416  0.32322313    -0.77000
C2187       C  0.68426889  0.29902147  0.30540312     0.83700
N2188       N  0.70041447  0.30675815  0.28502332    -0.77000
C2189       C  0.73048499  0.32715159  0.28154966     0.83800
N2190       N  0.74368564  0.34044595  0.29937548    -0.78700
C2191       C  0.78911177  0.33010088  0.18333236     0.81300
N2192       N  0.76986153  0.33476939  0.20477214    -0.77000
C2193       C  0.75839108  0.31766094  0.21930799     0.83700
N2194       N  0.76635404  0.29635827  0.21226385    -0.77000
C2195       C  0.78637110  0.29157303  0.19119498     0.83800
N2196       N  0.79653429  0.30850067  0.17662743    -0.78700
C2197       C  0.62988152  0.20015492  0.32856216     0.81300
N2198       N  0.64684442  0.22178564  0.33347501    -0.77000
C2199       C  0.63525696  0.23820431  0.31847110     0.83700
N2200       N  0.60601494  0.23279531  0.29874418    -0.77000
C2201       C  0.58960325  0.21149026  0.29341559     0.83800
N2202       N  0.60198907  0.19488467  0.30830610    -0.78700
C2203       C  0.59113879  0.19408559  0.19474263     0.81300
N2204       N  0.60127979  0.21648678  0.19104437    -0.77000
C2205       C  0.60362717  0.23069602  0.20849739     0.83700
N2206       N  0.59431241  0.22252576  0.22911671    -0.77000
C2207       C  0.58295931  0.20054033  0.23310997     0.83800
N2208       N  0.58295633  0.18614179  0.21584294    -0.78700
N2209       N  0.57308534  0.95088914  0.11953096    -0.26200
N2210       N  0.58554094  0.94709561  0.14059859    -0.34100
C2211       C  0.57918062  0.96659602  0.15164642     0.02100
C2212       C  0.56149108  0.98334936  0.13663381     0.08100
C2213       C  0.55837121  0.97257870  0.11643071    -0.05000
H2214       H  0.58811957  0.96854647  0.16916140     0.08800
H2215       H  0.54868005  0.97988444  0.10038830     0.10000
Cu2216     Cu  0.61309551  0.91483423  0.15081703     0.44200
Cu2217     Cu  0.58295100  0.92668807  0.09571158     0.42000
Cu2218     Cu  0.64604977  0.87106059  0.10619432     0.43900
N2219       N  0.64059443  0.88130928  0.15605888    -0.33600
N2220       N  0.65301402  0.86578536  0.14085758    -0.27900
C2221       C  0.67087998  0.84654139  0.15132533    -0.04000
C2222       C  0.66916265  0.85012559  0.17400263     0.08200
C2223       C  0.64974568  0.87230852  0.17622210     0.02000
H2224       H  0.68449510  0.83109038  0.14304745     0.09700
H2225       H  0.64356885  0.88143786  0.19150836     0.08800
N2226       N  0.63341352  0.88397646  0.07376069    -0.35100
N2227       N  0.60953176  0.90462496  0.07098273    -0.27300
C2228       C  0.60938955  0.90976970  0.04947832    -0.02500
C2229       C  0.63400976  0.89167913  0.03759100     0.06100
C2230       C  0.64875034  0.87535755  0.05349146     0.04200
H2231       H  0.59427973  0.92595113  0.04294697     0.09300
H2232       H  0.67154149  0.85893699  0.05061135     0.08200
N2233       N  0.53828443  0.08090413  0.11229251    -0.26200
N2234       N  0.54952922  0.08220224  0.13374321    -0.34100
C2235       C  0.54891354  0.06124362  0.14225832     0.02100
C2236       C  0.53618182  0.04634940  0.12509461     0.08100
C2237       C  0.52970974  0.05950869  0.10652517    -0.05000
H2238       H  0.55780638  0.05718925  0.15943681     0.08800
H2239       H  0.52158896  0.05385601  0.08977543     0.10000
Cu2240     Cu  0.56622974  0.11351373  0.14822304     0.44200
Cu2241     Cu  0.54145325  0.10771565  0.09099892     0.42000
Cu2242     Cu  0.58906395  0.16203799  0.10781726     0.43900
N2243       N  0.57928067  0.14733108  0.15636921    -0.33600
N2244       N  0.58740282  0.16422816  0.14228414    -0.27900
C2245       C  0.59351716  0.18335608  0.15378339    -0.04000
C2246       C  0.58893372  0.17838260  0.17605693     0.08200
C2247       C  0.57993759  0.15544246  0.17707443     0.02000
H2248       H  0.60026592  0.19973261  0.14641797     0.09700
H2249       H  0.57382774  0.14534278  0.19182903     0.08800
N2250       N  0.78636983  0.14774442  0.06949749    -0.35100
N2251       N  0.76331650  0.12747439  0.06446182    -0.27300
C2252       C  0.76914140  0.12444638  0.04262865    -0.02500
C2253       C  0.79737965  0.14374512  0.03315415     0.06100
C2254       C  0.80704798  0.15833663  0.05066969     0.04200
H2255       H  0.75543010  0.10901095  0.03438117     0.09300
H2256       H  0.83027972  0.17498637  0.04988750     0.08200
N2257       N  0.71580430  0.94545461  0.89462122    -0.26200
N2258       N  0.71196506  0.94115832  0.87329627    -0.34100
C2259       C  0.71375140  0.96066326  0.86202066     0.02100
C2260       C  0.71963902  0.97799337  0.87704764     0.08100
C2261       C  0.72068269  0.96757990  0.89753698    -0.05000
H2262       H  0.71010357  0.96214062  0.84426405     0.08800
H2263       H  0.72217677  0.97537572  0.91359181     0.10000
Cu2264     Cu  0.70202317  0.90861850  0.86173931     0.44200
Cu2265     Cu  0.70913830  0.92163447  0.91945105     0.42000
Cu2266     Cu  0.68113738  0.86492259  0.90623067     0.43900
N2267       N  0.68808605  0.87456162  0.85625805    -0.33600
N2268       N  0.67982716  0.85924369  0.87197631    -0.27900
C2269       C  0.66978412  0.83926843  0.86235935    -0.04000
C2270       C  0.67227838  0.84201740  0.83963930     0.08200
C2271       C  0.68404597  0.86459989  0.83635609     0.02000
H2272       H  0.66100765  0.82379510  0.87130151     0.09700
H2273       H  0.68810986  0.87325244  0.82068118     0.08800
N2274       N  0.68307027  0.87600096  0.93910352    -0.35100
N2275       N  0.69360184  0.89734379  0.94351135    -0.27300
C2276       C  0.69048508  0.90044118  0.96544055    -0.02500
C2277       C  0.67705395  0.88003961  0.97570271     0.06100
C2278       C  0.67316581  0.86484877  0.95839889     0.04200
H2279       H  0.69694942  0.91654130  0.97321970     0.09300
H2280       H  0.66220951  0.84712377  0.95974342     0.08200
N2281       N  0.71677290  0.07570450  0.90035532    -0.26200
N2282       N  0.69872784  0.07661736  0.87935001    -0.34100
C2283       C  0.70291142  0.05571897  0.87092042     0.02100
C2284       C  0.72496795  0.04136172  0.88776388     0.08100
C2285       C  0.73305619  0.05471943  0.90599270    -0.05000
H2286       H  0.68968138  0.05130392  0.85412042     0.08800
H2287       H  0.74744370  0.04943035  0.92249364     0.10000
Cu2288     Cu  0.66780733  0.10750797  0.86610322     0.44200
Cu2289     Cu  0.71114416  0.10218748  0.92138737     0.42000
Cu2290     Cu  0.64203777  0.15491079  0.90857478     0.43900
N2291       N  0.63962200  0.14082294  0.85950441    -0.33600
N2292       N  0.63067707  0.15716813  0.87408134    -0.27900
C2293       C  0.61120709  0.17587185  0.86318282    -0.04000
C2294       C  0.60784221  0.17121122  0.84085092     0.08200
C2295       C  0.62622868  0.14889830  0.83914835     0.02000
H2296       H  0.59949874  0.19170106  0.87101421     0.09700
H2297       H  0.62872396  0.13909654  0.82419323     0.08800
N2298       N  0.65459350  0.14457213  0.94147450    -0.35100
N2299       N  0.68069630  0.12439573  0.94524142    -0.27300
C2300       C  0.67909699  0.12004762  0.96686596    -0.02500
C2301       C  0.65160335  0.13837782  0.97773292     0.06100
C2302       C  0.63628354  0.15387523  0.96116563     0.04200
H2303       H  0.69490269  0.10425618  0.97414154     0.09300
H2304       H  0.61040094  0.17000688  0.96316049     0.08200
C2305       C  0.71790682  0.00241765  0.87258461    -0.15400
C2306       C  0.73356275  0.01689131  0.88876855    -0.30600
H2307       H  0.70141750  0.00841511  0.85644648     0.13600
H2308       H  0.75203408  0.01049416  0.90453738     0.14200
C2309       C  0.81945650  0.14677701  0.00968278    -0.15400
C2310       C  0.63277251  0.13770073  0.00147055    -0.30600
H2311       H  0.61413229  0.17195883  0.00783776     0.13600
H2312       H  0.84111124  0.11262203  0.00559486     0.14200
C2313       C  0.64838113  0.89291751  0.01343818    -0.15400
C2314       C  0.66477905  0.87585197  0.99982239    -0.30600
H2315       H  0.64265366  0.90949220  0.00638064     0.13600
H2316       H  0.66679920  0.85889089  0.00616932     0.14200
C2317       C  0.53423183  0.02168057  0.12438955    -0.15400
C2318       C  0.55505699  0.00780123  0.14068883    -0.30600
H2319       H  0.51797326  0.01473610  0.10866880     0.13600
H2320       H  0.57087049  0.01443775  0.15661138     0.14200
C2321       C  0.57868623  0.19304629  0.25654922    -0.15400
C2322       C  0.55642582  0.20814896  0.27157564    -0.30600
H2323       H  0.60770104  0.17805057  0.26154070     0.13600
H2324       H  0.52737597  0.22279164  0.26552415     0.14200
C2325       C  0.61613718  0.25500925  0.20681545    -0.15400
C2326       C  0.59902636  0.26860902  0.18987884    -0.30600
H2327       H  0.63104406  0.26271411  0.22240089     0.13600
H2328       H  0.77204689  0.26182598  0.16938104     0.14200
C2329       C  0.64903201  0.27696407  0.30662458    -0.15400
C2330       C  0.65853302  0.26162394  0.32258489    -0.30600
H2331       H  0.62056934  0.27223103  0.29164243     0.13600
H2332       H  0.68906662  0.26571251  0.33736741     0.14200
C2333       C  0.75161307  0.33334476  0.25830149    -0.15400
C2334       C  0.72604596  0.32049215  0.24164802    -0.30600
H2335       H  0.79314424  0.34609627  0.25518659     0.13600
H2336       H  0.68551900  0.30766330  0.24561767     0.14200
C2337       C  0.70829736  0.81984694  0.27018797    -0.15400
C2338       C  0.68116505  0.83345984  0.25439699    -0.30600
H2339       H  0.74641385  0.80673243  0.26536466     0.13600
H2340       H  0.64167926  0.84641675  0.25854877     0.14200
C2341       C  0.74985175  0.76170683  0.19055463    -0.15400
C2342       C  0.77206543  0.77858298  0.20344604    -0.30600
H2343       H  0.71227334  0.76472140  0.17703824     0.13600
H2344       H  0.80794537  0.77460524  0.21714690     0.14200
C2345       C  0.88149602  0.74851539  0.31728388    -0.15400
C2346       C  0.84942180  0.76378527  0.33041929    -0.30600
H2347       H  0.91944405  0.75418359  0.30442146     0.13600
H2348       H  0.81026739  0.75882692  0.34321768     0.14200
C2349       C  0.81126911  0.69438178  0.26302230    -0.15400
C2350       C  0.83013489  0.71043039  0.24809155    -0.30600
H2351       H  0.78011074  0.67977085  0.25804079     0.13600
H2352       H  0.86038795  0.72500037  0.25368020     0.14200
C2353       C  0.77947311  0.50231335  0.87491081    -0.15400
C2354       C  0.79592744  0.51665123  0.89115193    -0.30600
H2355       H  0.75535551  0.50830485  0.85967575     0.13600
H2356       H  0.81987854  0.51041534  0.90626263     0.14200
C2357       C  0.66931940  0.37754992  0.99974700    -0.15400
C2358       C  0.69246893  0.39421954  0.01285516    -0.30600
H2359       H  0.65342293  0.36155741  0.00685548     0.13600
H2360       H  0.70969429  0.40989431  0.00536522     0.14200
C2361       C  0.70450929  0.62938956  0.02036897    -0.15400
C2362       C  0.71725890  0.64648421  0.00641717    -0.30600
H2363       H  0.69718580  0.61274452  0.01366174     0.13600
H2364       H  0.72057828  0.66350855  0.01243108     0.14200
C2365       C  0.77974736  0.51913439  0.14737835    -0.15400
C2366       C  0.79918228  0.50756436  0.12929782    -0.30600
H2367       H  0.78421244  0.51178417  0.16371353     0.13600
H2368       H  0.79977277  0.51582925  0.11331615     0.14200
C2369       C  0.57309989  0.18831435  0.76113983    -0.15400
C2370       C  0.54399165  0.20253443  0.74621079    -0.30600
H2371       H  0.61114819  0.17533667  0.75596883     0.13600
H2372       H  0.50675142  0.21550157  0.75198279     0.14200
C2373       C  0.58637721  0.27301796  0.70434925    -0.15400
C2374       C  0.61285108  0.25732693  0.69057536    -0.30600
H2375       H  0.55068940  0.26776251  0.71792757     0.13600
H2376       H  0.65042007  0.26183865  0.67720439     0.14200
C2377       C  0.53249343  0.25887505  0.82848884    -0.15400
C2378       C  0.50396824  0.24311607  0.81527188    -0.30600
H2379       H  0.57172020  0.25452593  0.84120837     0.13600
H2380       H  0.46608379  0.24822335  0.80245226     0.14200
C2381       C  0.65360156  0.31232357  0.77213352    -0.15400
C2382       C  0.67405474  0.32732223  0.75644781    -0.30600
H2383       H  0.61830613  0.29846962  0.76745592     0.13600
H2384       H  0.51214662  0.33896091  0.76019148     0.14200
C2385       C  0.67545933  0.00221836  0.62622161    -0.15400
C2386       C  0.67733116  0.01545713  0.64407995    -0.30600
H2387       H  0.68276194  0.00962418  0.60998977     0.13600
H2388       H  0.66609478  0.00867987  0.66041769     0.14200
C2389       C  0.71491618  0.14996541  0.50442580    -0.15400
C2390       C  0.73965617  0.13364535  0.51775992    -0.30600
H2391       H  0.69377570  0.16541774  0.51130936     0.13600
H2392       H  0.76242326  0.11861426  0.51047631     0.14200
C2393       C  0.75702527  0.89452068  0.50239109    -0.15400
C2394       C  0.78049004  0.87832149  0.51603833    -0.30600
H2395       H  0.74199349  0.91058544  0.50932697     0.13600
H2396       H  0.79315767  0.86181753  0.50971286     0.14200
C2397       C  0.62963279  0.02341062  0.38889854    -0.15400
C2398       C  0.61208922  0.01105414  0.37122832    -0.30600
H2399       H  0.63355383  0.01534679  0.40492326     0.13600
H2400       H  0.61297531  0.01828071  0.35476908     0.14200
C2401       C  0.71851000  0.51906923  0.64643039    -0.15400
C2402       C  0.70110261  0.50626538  0.62907935    -0.30600
H2403       H  0.71220036  0.51267632  0.66313697     0.13600
H2404       H  0.70253083  0.51355026  0.61263739     0.14200
C2405       C  0.67331377  0.37149403  0.50265237    -0.15400
C2406       C  0.64574488  0.38781725  0.51560211    -0.30600
H2407       H  0.68320598  0.35494860  0.50934815     0.13600
H2408       H  0.63317579  0.40378071  0.50798875     0.14200
C2409       C  0.59343942  0.64869876  0.50660775    -0.15400
C2410       C  0.61272445  0.63196813  0.52031586    -0.30600
H2411       H  0.58109644  0.66518242  0.51303406     0.13600
H2412       H  0.62734139  0.61597146  0.51315587     0.14200
C2413       C  0.75056307  0.51835123  0.40001831    -0.15400
C2414       C  0.76720328  0.50411792  0.38365718    -0.30600
H2415       H  0.73559179  0.51181922  0.41617029     0.13600
H2416       H  0.78117049  0.51038603  0.36729870     0.14200
C2417       C  0.68515172  0.81113824  0.76298962    -0.15400
C2418       C  0.65760991  0.82532694  0.74806439    -0.30600
H2419       H  0.70877049  0.79560029  0.75695468     0.13600
H2420       H  0.63209542  0.84085427  0.75327118     0.14200
C2421       C  0.59147070  0.76607716  0.82156250    -0.15400
C2422       C  0.62802992  0.75165020  0.83430077    -0.30600
H2423       H  0.55502954  0.75929437  0.80910214     0.13600
H2424       H  0.66698676  0.75755089  0.84648802     0.14200
C2425       C  0.80002338  0.76729040  0.69756697    -0.15400
C2426       C  0.78016461  0.75365455  0.71433452    -0.30600
H2427       H  0.79879145  0.76149986  0.68061540     0.13600
H2428       H  0.77894607  0.76050981  0.73092949     0.14200
C2429       C  0.69406375  0.69116043  0.75767245    -0.15400
C2430       C  0.66019105  0.70578647  0.77107251    -0.30600
H2431       H  0.71114533  0.67482872  0.76348921     0.13600
H2432       H  0.64295775  0.72159187  0.76388961     0.14200
C2433       C  0.95393704  0.69762411  0.69172425     0.81300
N2434       N  0.92230138  0.69270409  0.71181600    -0.77000
C2435       C  0.91991392  0.70857049  0.72780528     0.83700
N2436       N  0.95021023  0.72880137  0.72382804    -0.77000
C2437       C  0.98247440  0.73382189  0.70430113     0.83800
N2438       N  0.98429851  0.71825931  0.68800773    -0.78700
C2439       C  0.87094730  0.68476661  0.82560700     0.81300
N2440       N  0.84649267  0.70575891  0.83051029    -0.77000
C2441       C  0.83047489  0.72014580  0.81387727     0.83700
N2442       N  0.84051090  0.71372753  0.79278666    -0.77000
C2443       C  0.86750801  0.69340287  0.78747272     0.83800
N2444       N  0.88250929  0.67872338  0.80404083    -0.78700
C2445       C  0.86235318  0.81986582  0.82812845     0.81300
N2446       N  0.85322851  0.79868385  0.83614742    -0.77000
C2447       C  0.84642169  0.78125320  0.82218787     0.83700
N2448       N  0.85154811  0.78498684  0.80024179    -0.77000
C2449       C  0.86164938  0.80568805  0.79178784     0.83800
N2450       N  0.86673370  0.82349516  0.80575051    -0.78700
C2451       C  0.83357208  0.82879856  0.69235209     0.81300
N2452       N  0.82080943  0.80703265  0.68681933    -0.77000
C2453       C  0.81978053  0.79094290  0.70265925     0.83700
N2454       N  0.83282814  0.79685758  0.72384269    -0.77000
C2455       C  0.84584336  0.81833195  0.72975454     0.83800
N2456       N  0.84510778  0.83446257  0.71390434    -0.78700
N2457       N  0.93928545  0.57337045  0.40524436    -0.26200
N2458       N  0.95753407  0.57446671  0.38409117    -0.34100
C2459       C  0.96466331  0.55330146  0.37641384     0.02100
C2460       C  0.94987788  0.53859628  0.39382748     0.08100
C2461       C  0.93409786  0.55202919  0.41159679    -0.05000
H2462       H  0.98054983  0.54899929  0.35970642     0.08800
H2463       H  0.92172230  0.54665138  0.42830722     0.10000
Cu2464     Cu  0.97297385  0.60584676  0.36884627     0.44200
Cu2465     Cu  0.92933940  0.59995402  0.42633889     0.42000
Cu2466     Cu  0.98243533  0.65329680  0.41011572     0.50300
N2467       N  0.98510565  0.64008083  0.36111166    -0.33600
N2468       N  0.98901935  0.65649023  0.37574787    -0.27900
C2469       C  0.99834455  0.67601760  0.36496804    -0.04000
C2470       C  0.99999506  0.67196421  0.34252873     0.08200
C2471       C  0.99137333  0.64901490  0.34067150     0.02000
H2472       H  0.00367681  0.69206671  0.37295491     0.09700
H2473       H  0.99071357  0.63945948  0.32555134     0.08800
N2474       N  0.97319665  0.64467676  0.44347877    -0.35100
N2475       N  0.95216183  0.62432061  0.44907370    -0.27300
C2476       C  0.95357430  0.62210855  0.47108652    -0.02500
C2477       C  0.78398635  0.64761324  0.48293986     0.06100
C2478       C  0.79588825  0.66183444  0.46495366     0.04200
H2479       H  0.93990080  0.60681027  0.47977026     0.09300
H2480       H  0.81458366  0.67899356  0.46549546     0.08200
N2481       N  0.95982251  0.44250026  0.40181528    -0.26200
N2482       N  0.96494343  0.43815685  0.38050843    -0.34100
C2483       C  0.97214389  0.45763781  0.36934606     0.02100
C2484       C  0.97097369  0.47504283  0.38443496     0.08100
C2485       C  0.96364851  0.46463438  0.40486480    -0.05000
H2486       H  0.97587756  0.45907513  0.35156414     0.08800
H2487       H  0.95969887  0.47240290  0.42090579     0.10000
Cu2488     Cu  0.95763861  0.40551649  0.36889052     0.44200
Cu2489     Cu  0.94281225  0.41851496  0.42605769     0.42000
Cu2490     Cu  0.91916755  0.36128172  0.41159983     0.43900
N2491       N  0.94214303  0.37164061  0.36243485    -0.33600
N2492       N  0.92830808  0.35595913  0.37744882    -0.27900
C2493       C  0.91914563  0.33629992  0.36704693    -0.04000
C2494       C  0.92760991  0.33972956  0.34453073     0.08200
C2495       C  0.94220776  0.36229531  0.34224459     0.02000
H2496       H  0.90602925  0.32069451  0.37526826     0.09700
H2497       H  0.95087909  0.37138767  0.32696725     0.08800
N2498       N  0.90837347  0.37259155  0.44419029    -0.35100
N2499       N  0.91676732  0.39394309  0.44900598    -0.27300
C2500       C  0.90498789  0.39692920  0.47069543    -0.02500
C2501       C  0.88819881  0.37646368  0.48031255     0.06100
C2502       C  0.89147572  0.36132734  0.46298516     0.04200
H2503       H  0.90872137  0.41294562  0.47880953     0.09300
H2504       H  0.88088608  0.34355805  0.46391363     0.08200
N2505       N  0.97841478  0.57356028  0.62567954    -0.26200
N2506       N  0.95610818  0.57935593  0.64562108    -0.34100
C2507       C  0.93505027  0.56081027  0.65679227     0.02100
C2508       C  0.94356570  0.54260723  0.64288718     0.08100
C2509       C  0.97125517  0.55143300  0.62332213    -0.05000
H2510       H  0.91215515  0.56070001  0.67335358     0.08800
H2511       H  0.98419943  0.54254692  0.60826574     0.10000
Cu2512     Cu  0.95267893  0.61289190  0.65418935     0.44200
Cu2513     Cu  0.01188050  0.59625777  0.60209076     0.42000
Cu2514     Cu  0.98946613  0.65523468  0.60869690     0.43900
N2515       N  0.95714684  0.64736915  0.65801931    -0.33600
N2516       N  0.97179060  0.66248314  0.64248234    -0.27900
C2517       C  0.97286325  0.68284152  0.65204416    -0.04000
C2518       C  0.95738683  0.68034077  0.67442104     0.08200
C2519       C  0.94763016  0.65769791  0.67749883     0.02000
H2520       H  0.98375217  0.69833341  0.64334262     0.09700
H2521       H  0.93580434  0.64920632  0.69293548     0.08800
N2522       N  0.00485456  0.64017268  0.57753791    -0.35100
N2523       N  0.01570967  0.61840473  0.57616263    -0.27300
C2524       C  0.02077272  0.61237751  0.55497049    -0.02500
C2525       C  0.81168198  0.63492488  0.54486628     0.06100
C2526       C  0.79719000  0.65174069  0.56012831     0.04200
H2527       H  0.02614681  0.59529403  0.54941475     0.09300
H2528       H  0.78444248  0.66901361  0.55658892     0.08200
N2529       N  0.83929033  0.45004636  0.61929974    -0.26200
N2530       N  0.86572495  0.44689028  0.63927446    -0.34100
C2531       C  0.88833211  0.46681238  0.64726128     0.02100
C2532       C  0.87579253  0.48297088  0.63118403     0.08100
C2533       C  0.84524793  0.47163431  0.61377782    -0.05000
H2534       H  0.91519536  0.46913001  0.66295052     0.08800
H2535       H  0.83049837  0.47848375  0.59787367     0.10000
Cu2536     Cu  0.87302439  0.41451898  0.65198799     0.44200
Cu2537     Cu  0.80452366  0.42487260  0.59905419     0.42000
Cu2538     Cu  0.85052932  0.36864842  0.60946470     0.43900
N2539       N  0.86892525  0.38022727  0.65866968    -0.33600
N2540       N  0.85983001  0.36404797  0.64399544    -0.27900
C2541       C  0.85550796  0.34438292  0.65493691    -0.04000
C2542       C  0.86276668  0.34830705  0.67738843     0.08200
C2543       C  0.87126550  0.37118643  0.67905067     0.02000
H2544       H  0.84648318  0.32839058  0.64714245     0.09700
H2545       H  0.87643167  0.38071647  0.69409806     0.08800
N2546       N  0.83515383  0.38092188  0.57709745    -0.35100
N2547       N  0.81430914  0.40184361  0.57431957    -0.27300
C2548       C  0.81129718  0.40667518  0.55278433    -0.02500
C2549       C  0.83157033  0.38808243  0.54093176     0.06100
C2550       C  0.84646016  0.37182245  0.55685049     0.04200
H2551       H  0.79965243  0.42311131  0.54621822     0.09300
H2552       H  0.86689175  0.35511988  0.55397511     0.08200
N2553       N  0.96671635  0.95196217  0.39017544    -0.26200
N2554       N  0.99166131  0.94621546  0.37048860    -0.34100
C2555       C  0.00776062  0.96496803  0.35889231     0.02100
C2556       C  0.99268259  0.98327002  0.37221162     0.08100
C2557       C  0.96631927  0.97422594  0.39184580    -0.05000
H2558       H  0.03157309  0.96524673  0.34244607     0.08800
H2559       H  0.94999999  0.98304801  0.40664802     0.10000
Cu2560     Cu  0.00475305  0.91258630  0.36289323     0.44200
Cu2561     Cu  0.94200709  0.92959400  0.41496976     0.42000
Cu2562     Cu  0.98638277  0.87209148  0.41109820     0.43900
N2563       N  0.01122684  0.87788445  0.36103519    -0.33600
N2564       N  0.00459596  0.86349786  0.37767585    -0.27900
C2565       C  0.01240190  0.84263780  0.36958845    -0.04000
C2566       C  0.02467094  0.84399529  0.34696929     0.08200
C2567       C  0.02355355  0.86655813  0.34221634     0.02000
H2568       H  0.01027664  0.82758011  0.37950135     0.09700
H2569       H  0.03168111  0.87427349  0.32619432     0.08800
N2570       N  0.96400968  0.88763692  0.44163155    -0.35100
N2571       N  0.94555844  0.90895659  0.44209026    -0.27300
C2572       C  0.93650863  0.91558247  0.46301578    -0.02500
C2573       C  0.95004528  0.89778534  0.47682222     0.06100
C2574       C  0.96742278  0.88011867  0.46274921     0.04200
H2575       H  0.92414260  0.93254826  0.46788483     0.09300
H2576       H  0.98354784  0.86341045  0.46747878     0.08200
N2577       N  0.87551529  0.07533564  0.40166768    -0.26200
N2578       N  0.85660619  0.07813256  0.38092251    -0.34100
C2579       C  0.83798425  0.05804710  0.37247099     0.02100
C2580       C  0.84564360  0.04217092  0.38910850     0.08100
C2581       C  0.86927387  0.05380822  0.40726091    -0.05000
H2582       H  0.81786296  0.05538701  0.35593892     0.08800
H2583       H  0.87935204  0.04719551  0.42359909     0.10000
Cu2584     Cu  0.85503606  0.11050965  0.36842864     0.44200
Cu2585     Cu  0.90291781  0.10121682  0.42169144     0.42000
Cu2586     Cu  0.87636555  0.15878180  0.40966910     0.43900
N2587       N  0.85210084  0.14464196  0.36160671    -0.33600
N2588       N  0.85904906  0.16165469  0.37545966    -0.27900
C2589       C  0.85262143  0.18089333  0.36387913    -0.04000
C2590       C  0.84094554  0.17563988  0.34192819     0.08200
C2591       C  0.84101269  0.15262377  0.34121492     0.02000
H2592       H  0.85552885  0.19743226  0.37095352     0.09700
H2593       H  0.83304136  0.14227330  0.32682382     0.08800
N2594       N  0.90061027  0.14720660  0.44155800    -0.35100
N2595       N  0.91252394  0.12568806  0.44468856    -0.27300
C2596       C  0.92959182  0.12183397  0.46570121    -0.02500
C2597       C  0.92799698  0.14169941  0.47683209     0.06100
C2598       C  0.90904590  0.15773075  0.46116731     0.04200
H2599       H  0.94151066  0.10550408  0.47248147     0.09300
H2600       H  0.90345083  0.17552207  0.46369607     0.08200
N2601       N  0.03187527  0.95657452  0.61782113    -0.26200
N2602       N  0.03691287  0.95233327  0.63918175    -0.34100
C2603       C  0.85399249  0.96524703  0.65067011     0.02100
C2604       C  0.85641088  0.98266799  0.63549068     0.08100
C2605       C  0.84807486  0.97246643  0.61513698    -0.05000
H2606       H  0.85926312  0.96653802  0.66839026     0.08800
H2607       H  0.84617293  0.98045015  0.59911711     0.10000
Cu2608     Cu  0.03071014  0.91993993  0.65181400     0.44200
Cu2609     Cu  0.01393030  0.93296366  0.59364422     0.42000
Cu2610     Cu  0.01200238  0.87624781  0.60818837     0.43900
N2611       N  0.02816525  0.88558008  0.65768773    -0.33600
N2612       N  0.02158841  0.87029967  0.64203878    -0.27900
C2613       C  0.02165229  0.84996030  0.65144773    -0.04000
C2614       C  0.02868687  0.85236651  0.67402004     0.08200
C2615       C  0.03278097  0.87518432  0.67744182     0.02000
H2616       H  0.01677276  0.83446317  0.64243946     0.09700
H2617       H  0.03844923  0.88362131  0.69309677     0.08800
N2618       N  0.00012613  0.88663612  0.57549753    -0.35100
N2619       N  0.00008495  0.90809042  0.57046185    -0.27300
C2620       C  0.99097548  0.91053843  0.54863006    -0.02500
C2621       C  0.98469191  0.88952742  0.53921412     0.06100
C2622       C  0.99135054  0.87473173  0.55679300     0.04200
H2623       H  0.98988808  0.92653776  0.54031252     0.09300
H2624       H  0.98942527  0.85669160  0.55604381     0.08200
N2625       N  0.91406024  0.08002188  0.61379749    -0.26200
N2626       N  0.88939895  0.08126709  0.63437968    -0.34100
C2627       C  0.87909368  0.06020409  0.64212519     0.02100
C2628       C  0.89776472  0.04530273  0.62536528     0.08100
C2629       C  0.91958806  0.05856890  0.60786421    -0.05000
H2630       H  0.85673451  0.05611146  0.65826705     0.08800
H2631       H  0.93605694  0.05300877  0.59156875     0.10000
Cu2632     Cu  0.86692699  0.11237890  0.64904626     0.44200
Cu2633     Cu  0.93313175  0.10668305  0.59282676     0.42000
Cu2634     Cu  0.87433999  0.15944615  0.60750005     0.43900
N2635       N  0.84929561  0.14644772  0.65592011    -0.33600
N2636       N  0.85299498  0.16259392  0.64089633    -0.27900
C2637       C  0.84031569  0.18231509  0.65058492    -0.04000
C2638       C  0.82755306  0.17874018  0.67274326     0.08200
C2639       C  0.83337968  0.15580580  0.67567052     0.02000
H2640       H  0.84000653  0.19817823  0.64197395     0.09700
H2641       H  0.82690111  0.14664018  0.69099355     0.08800
N2642       N  0.90194615  0.15232913  0.57517089    -0.35100
N2643       N  0.92646027  0.13229610  0.57008194    -0.27300
C2644       C  0.93816039  0.13119984  0.54826115    -0.02500
C2645       C  0.92004893  0.15167444  0.53893638     0.06100
C2646       C  0.89681633  0.16466837  0.55656983     0.04200
H2647       H  0.95483172  0.11611616  0.53984849     0.09300
H2648       H  0.87581889  0.18154569  0.55585854     0.08200
C2649       C  0.93435571  0.32237544  0.82996956     0.81300
N2650       N  0.74168481  0.30068270  0.83489159    -0.77000
C2651       C  0.72118233  0.28355086  0.82172142     0.83700
N2652       N  0.69283426  0.28825460  0.80163470    -0.77000
C2653       C  0.88785640  0.31141531  0.79537740     0.83800
N2654       N  0.90708734  0.32796565  0.80965239    -0.78700
C2655       C  0.85482445  0.33208915  0.69579590     0.81300
N2656       N  0.82937917  0.31099104  0.69170204    -0.77000
C2657       C  0.81676186  0.29669069  0.70880987     0.83700
N2658       N  0.82995781  0.30343533  0.72961675    -0.77000
C2659       C  0.85679775  0.32400370  0.73412389     0.83800
N2660       N  0.86931057  0.33847285  0.71705471    -0.78700
C2661       C  0.78447483  0.18641449  0.82277049     0.81300
N2662       N  0.78696504  0.18010409  0.80109724    -0.77000
C2663       C  0.76267929  0.19416522  0.78514382     0.83700
N2664       N  0.73655919  0.21438919  0.79106428    -0.77000
C2665       C  0.73498257  0.22119062  0.81222439     0.83800
N2666       N  0.75921953  0.20721882  0.82837674    -0.78700
C2667       C  0.80995513  0.19618045  0.68898757     0.81300
N2668       N  0.81610166  0.21812618  0.68288367    -0.77000
C2669       C  0.79695614  0.23453215  0.69721127     0.83700
N2670       N  0.77177745  0.22873630  0.71752965    -0.77000
C2671       C  0.76674266  0.20716935  0.72400706     0.83800
N2672       N  0.78631330  0.19066271  0.70978111    -0.78700
N2673       N  0.93244931  0.56847030  0.12936295    -0.26200
N2674       N  0.95125907  0.57444680  0.14947964    -0.34100
C2675       C  0.96825609  0.55583476  0.16109517     0.02100
C2676       C  0.96071977  0.53742755  0.14733183     0.08100
C2677       C  0.93770651  0.54625675  0.12740383    -0.05000
H2678       H  0.98750555  0.55576453  0.17793579     0.08800
H2679       H  0.92662707  0.53728537  0.11232855     0.10000
Cu2680     Cu  0.95507478  0.60836935  0.15775506     0.44200
Cu2681     Cu  0.90554501  0.59064782  0.10469547     0.42000
Cu2682     Cu  0.92799319  0.64908485  0.11004346     0.43900
N2683       N  0.95205435  0.64332195  0.16007543    -0.33600
N2684       N  0.94180133  0.65760704  0.14356573    -0.27900
C2685       C  0.94278378  0.67855315  0.15175059    -0.04000
C2686       C  0.95450195  0.67748369  0.17431127     0.08200
C2687       C  0.96022766  0.65490680  0.17893662     0.02000
H2688       H  0.93638848  0.69352763  0.14191775     0.09700
H2689       H  0.96993244  0.64739311  0.19491013     0.08800
N2690       N  0.91289167  0.63386748  0.07905590    -0.35100
N2691       N  0.90246447  0.61205570  0.07806453    -0.27300
C2692       C  0.89646964  0.60577168  0.05697962    -0.02500
C2693       C  0.90373714  0.62431394  0.04360289     0.06100
C2694       C  0.91411645  0.64206953  0.05812831     0.04200
H2695       H  0.89042228  0.58862802  0.05167996     0.09300
H2696       H  0.92394495  0.65937728  0.05381916     0.08200
N2697       N  0.04675509  0.44303979  0.12316871    -0.26200
N2698       N  0.01996126  0.43996103  0.14332011    -0.34100
C2699       C  0.00238452  0.46019572  0.15185500     0.02100
C2700       C  0.01893824  0.47646435  0.13603476     0.08100
C2701       C  0.04659662  0.46483561  0.11823665    -0.05000
H2702       H  0.97642325  0.46274989  0.16780052     0.08800
H2703       H  0.06291131  0.47169460  0.10236394     0.10000
Cu2704     Cu  0.00529273  0.40737700  0.15574363     0.44200
Cu2705     Cu  0.89359013  0.42810115  0.09346207     0.42000
Cu2706     Cu  0.84266942  0.37188561  0.10172913     0.43900
N2707       N  0.81518767  0.38104980  0.15104636    -0.33600
N2708       N  0.82173472  0.36577363  0.13534041    -0.27900
C2709       C  0.81321845  0.34546412  0.14458156    -0.04000
C2710       C  0.80056444  0.34805117  0.16700559     0.08200
C2711       C  0.80207391  0.37079822  0.17052352     0.02000
H2712       H  0.81620685  0.32989882  0.13560247     0.09700
H2713       H  0.97917757  0.36982321  0.19557687     0.08800
N2714       N  0.87102886  0.38442533  0.07046491    -0.35100
N2715       N  0.89315942  0.40535128  0.06838211    -0.27300
C2716       C  0.90665684  0.41001812  0.04713018    -0.02500
C2717       C  0.89190716  0.39127768  0.03488041     0.06100
C2718       C  0.86921199  0.37515237  0.05013169     0.04200
H2719       H  0.92239062  0.42633519  0.04091243     0.09300
H2720       H  0.85113133  0.35829820  0.04671077     0.08200
N2721       N  0.96537176  0.56849716  0.90153787    -0.26200
N2722       N  0.95232481  0.57218957  0.88044171    -0.34100
C2723       C  0.95625851  0.55263952  0.86947188     0.02100
C2724       C  0.97309145  0.53588216  0.88443244     0.08100
C2725       C  0.97819731  0.54666314  0.90461685    -0.05000
H2726       H  0.94683884  0.55072606  0.85197591     0.08800
H2727       H  0.98858114  0.53927683  0.92058593     0.10000
Cu2728     Cu  0.92832426  0.60397612  0.86877394     0.44200
Cu2729     Cu  0.96047117  0.59293112  0.92564757     0.42000
Cu2730     Cu  0.90686951  0.64867737  0.91111893     0.43900
N2731       N  0.90681325  0.63735103  0.86189491    -0.33600
N2732       N  0.89825357  0.65333047  0.87679211    -0.27900
C2733       C  0.88436891  0.67267069  0.86614865    -0.04000
C2734       C  0.88478425  0.66868174  0.84360612     0.08200
C2735       C  0.89918355  0.64614297  0.84157026     0.02000
H2736       H  0.87503126  0.68851459  0.87422513     0.09700
H2737       H  0.90340537  0.63672953  0.82640075     0.08800
N2738       N  0.92112431  0.63831145  0.94399795    -0.35100
N2739       N  0.94064392  0.61762864  0.94883712    -0.27300
C2740       C  0.94322156  0.61517483  0.97085010    -0.02500
C2741       C  0.92440203  0.63527928  0.98069126     0.06100
C2742       C  0.91136045  0.64966758  0.96308335     0.04200
H2743       H  0.95758276  0.59971721  0.97900534     0.09300
H2744       H  0.89405999  0.66691153  0.96410854     0.08200
N2745       N  0.80949836  0.44521829  0.89426161    -0.26200
N2746       N  0.78857933  0.44106095  0.87387759    -0.34100
C2747       C  0.98684049  0.45824972  0.87799936     0.02100
C2748       C  0.00722879  0.47314811  0.89448707     0.08100
C2749       C  0.02844173  0.45997638  0.91191003    -0.05000
H2750       H  0.96583695  0.46232683  0.86183619     0.08800
H2751       H  0.04672889  0.46557789  0.92791985     0.10000
Cu2752     Cu  0.77652462  0.40830270  0.86277443     0.44200
Cu2753     Cu  0.83172223  0.42141273  0.91781124     0.42000
Cu2754     Cu  0.80648142  0.36457888  0.90657753     0.43900
N2755       N  0.76894356  0.37378577  0.85822620    -0.33600
N2756       N  0.78013628  0.35856436  0.87378455    -0.27900
C2757       C  0.77040505  0.33815700  0.86514802    -0.04000
C2758       C  0.75201698  0.34048372  0.84320217     0.08200
C2759       C  0.75147006  0.36327272  0.83932610     0.02000
H2760       H  0.77550779  0.32270862  0.87432019     0.09700
H2761       H  0.73881078  0.37162100  0.82396434     0.08800
N2762       N  0.83135686  0.37572445  0.93807404    -0.35100
N2763       N  0.84182754  0.39718895  0.94173890    -0.27300
C2764       C  0.85594501  0.40034426  0.96315310    -0.02500
C2765       C  0.85452382  0.37978343  0.97373203     0.06100
C2766       C  0.83818516  0.36450302  0.95731316     0.04200
H2767       H  0.86438428  0.41659273  0.97045068     0.09300
H2768       H  0.83125646  0.34664948  0.95924237     0.08200
C2769       C  0.01222634  0.68853174  0.32467448     0.81300
N2770       N  0.00397535  0.68245914  0.30306515    -0.77000
C2771       C  0.01877480  0.69741302  0.28661499     0.83700
N2772       N  0.04162276  0.71819000  0.29205745    -0.77000
C2773       C  0.04871384  0.72466907  0.31324751     0.83800
N2774       N  0.03373630  0.70984262  0.32975889    -0.78700
C2775       C  0.96360333  0.69627110  0.18990712     0.81300
N2776       N  0.95127419  0.71779804  0.18312951    -0.77000
C2777       C  0.96382077  0.73512243  0.19713706     0.83700
N2778       N  0.98843088  0.73059480  0.21769165    -0.77000
C2779       C  0.99944313  0.70950847  0.22485627     0.83800
N2780       N  0.98684568  0.69215624  0.21096838    -0.78700
C2781       C  0.84065018  0.82606913  0.33086908     0.81300
N2782       N  0.03635301  0.80390105  0.33833856    -0.77000
C2783       C  0.85671333  0.78764953  0.32412103     0.83700
N2784       N  0.87947377  0.79274473  0.30338958    -0.77000
C2785       C  0.88222677  0.81394363  0.29589133     0.83800
N2786       N  0.86275218  0.83090069  0.30965601    -0.78700
C2787       C  0.88920036  0.83222312  0.19557628     0.81300
N2788       N  0.88002754  0.83875117  0.21706033    -0.77000
C2789       C  0.89938261  0.82490957  0.23382884     0.83700
N2790       N  0.92772133  0.80464735  0.22884289    -0.77000
C2791       C  0.93611458  0.79761939  0.20780468     0.83800
N2792       N  0.91651445  0.81140376  0.19091029    -0.78700
C2793       C  0.91758595  0.32324603  0.32674819     0.81300
N2794       N  0.89559937  0.30203377  0.33186120    -0.77000
C2795       C  0.88322950  0.28698578  0.31559695     0.83700
N2796       N  0.89419069  0.29327533  0.29423000    -0.77000
C2797       C  0.91708243  0.31423895  0.28877132     0.83800
N2798       N  0.92890375  0.32923980  0.30518741    -0.78700
C2799       C  0.97706591  0.32001459  0.19137895     0.81300
N2800       N  0.95494962  0.32299917  0.21291755    -0.77000
C2801       C  0.94728501  0.30479425  0.22643606     0.83700
N2802       N  0.96302891  0.28429721  0.21846556    -0.77000
C2803       C  0.98549530  0.28116565  0.19734996     0.83800
N2804       N  0.99116124  0.29902734  0.18369917    -0.78700
C2805       C  0.82785903  0.19041512  0.32287886     0.81300
N2806       N  0.83446150  0.21316490  0.32435402    -0.77000
C2807       C  0.82137064  0.22603664  0.30617148     0.83700
N2808       N  0.80196758  0.21608871  0.28710868    -0.77000
C2809       C  0.79609526  0.19362403  0.28539759     0.83800
N2810       N  0.81034220  0.18078998  0.30323631    -0.78700
C2811       C  0.79058655  0.19314538  0.18837853     0.81300
N2812       N  0.80569042  0.21525461  0.18434034    -0.77000
C2813       C  0.80690830  0.22984585  0.20152649     0.83700
N2814       N  0.79188701  0.22248264  0.22205986    -0.77000
C2815       C  0.77555411  0.20098824  0.22626125     0.83800
N2816       N  0.77473982  0.18607633  0.20942714    -0.78700
N2817       N  0.77608407  0.94810071  0.12192279    -0.26200
N2818       N  0.78897410  0.94517834  0.14310342    -0.34100
C2819       C  0.78188670  0.96512414  0.15334487     0.02100
C2820       C  0.76332065  0.98117997  0.13766314     0.08100
C2821       C  0.76043231  0.96956725  0.11795297    -0.05000
H2822       H  0.79094593  0.96785672  0.17074892     0.08800
H2823       H  0.75028656  0.97614867  0.10163512     0.10000
Cu2824     Cu  0.81802072  0.91329323  0.15446772     0.44200
Cu2825     Cu  0.78651456  0.92329592  0.09888638     0.42000
Cu2826     Cu  0.84856180  0.86849531  0.11028719     0.43900
N2827       N  0.84423026  0.87955984  0.15992685    -0.33600
N2828       N  0.85541174  0.86393078  0.14474169    -0.27900
C2829       C  0.87208482  0.84457091  0.15505149    -0.04000
C2830       C  0.87117923  0.84809832  0.17764773     0.08200
C2831       C  0.85320664  0.87040795  0.18005168     0.02000
H2832       H  0.88441907  0.82907323  0.14668154     0.09700
H2833       H  0.84787317  0.87947459  0.19539974     0.08800
N2834       N  0.83403259  0.88010131  0.07777989    -0.35100
N2835       N  0.81078012  0.90072071  0.07453972    -0.27300
C2836       C  0.80876981  0.90512679  0.05291739    -0.02500
C2837       C  0.83121228  0.88647372  0.04152464     0.06100
C2838       C  0.84702636  0.87067452  0.05777340     0.04200
H2839       H  0.79340997  0.92109900  0.04594949     0.09300
H2840       H  0.86873451  0.85405419  0.05528888     0.08200
N2841       N  0.73152728  0.07749495  0.10939678    -0.26200
N2842       N  0.74609038  0.07963663  0.13059147    -0.34100
C2843       C  0.74774596  0.05903170  0.13985695     0.02100
C2844       C  0.73302035  0.04343797  0.12348525     0.08100
C2845       C  0.72301372  0.05584467  0.10454879    -0.05000
H2846       H  0.75974486  0.05568355  0.15700165     0.08800
H2847       H  0.71286230  0.04950414  0.08814822     0.10000
Cu2848     Cu  0.76442061  0.11139480  0.14387656     0.44200
Cu2849     Cu  0.73194508  0.10355617  0.08717234     0.42000
Cu2850     Cu  0.79137157  0.15796052  0.10239450     0.43900
N2851       N  0.77877182  0.14532296  0.15127030    -0.33600
N2852       N  0.78886113  0.16170534  0.13672613    -0.27900
C2853       C  0.79555249  0.18116527  0.14767352    -0.04000
C2854       C  0.78906211  0.17692346  0.17008074     0.08200
C2855       C  0.77844687  0.15407337  0.17171760     0.02000
H2856       H  0.80362551  0.19727114  0.13984814     0.09700
H2857       H  0.77062342  0.14446829  0.18672611     0.08800
N2858       N  0.98930525  0.14415245  0.06679915    -0.35100
N2859       N  0.97464057  0.12323449  0.06154125    -0.27300
C2860       C  0.98163355  0.12059481  0.03970289    -0.02500
C2861       C  0.00199177  0.14081308  0.03036647     0.06100
C2862       C  0.00564972  0.15554777  0.04802900     0.04200
H2863       H  0.97345813  0.10486619  0.03133504     0.09300
H2864       H  0.02157487  0.17296405  0.04735924     0.08200
N2865       N  0.92252090  0.93930863  0.90186891    -0.26200
N2866       N  0.91218851  0.93717682  0.88041459    -0.34100
C2867       C  0.91544369  0.95777690  0.87107567     0.02100
C2868       C  0.92915656  0.97321733  0.88769014     0.08100
C2869       C  0.93332564  0.96080916  0.90676909    -0.05000
H2870       H  0.90876446  0.96120118  0.85366829     0.08800
H2871       H  0.94218502  0.96705086  0.92327748     0.10000
Cu2872     Cu  0.89496074  0.90544354  0.86668140     0.44200
Cu2873     Cu  0.91774129  0.91401798  0.92484034     0.42000
Cu2874     Cu  0.87641931  0.85991788  0.91075311     0.43900
N2875       N  0.88158298  0.87106561  0.86081901    -0.33600
N2876       N  0.87517474  0.85557621  0.87647598    -0.27900
C2877       C  0.86748663  0.83553480  0.86692632    -0.04000
C2878       C  0.86905817  0.83819286  0.84426200     0.08200
C2879       C  0.87816485  0.86095756  0.84090430     0.02000
H2880       H  0.86123656  0.82000519  0.87595287     0.09700
H2881       H  0.88199034  0.86954478  0.82519091     0.08800
N2882       N  0.88044340  0.86933988  0.94390549    -0.35100
N2883       N  0.89657903  0.89023972  0.94862154    -0.27300
C2884       C  0.89382715  0.89316338  0.97051372    -0.02500
C2885       C  0.87471675  0.87305053  0.98044335     0.06100
C2886       C  0.86725658  0.85815735  0.96300850     0.04200
H2887       H  0.90437661  0.90895659  0.97851027     0.09300
H2888       H  0.85135525  0.84075868  0.96410807     0.08200
N2889       N  0.91128016  0.06895055  0.89212278    -0.26200
N2890       N  0.89233045  0.07265359  0.87147566    -0.34100
C2891       C  0.89290745  0.05298265  0.86057244     0.02100
C2892       C  0.91363117  0.03621542  0.87518269     0.08100
C2893       C  0.92463719  0.04716163  0.89502816    -0.05000
H2894       H  0.87755558  0.05092418  0.84349289     0.08800
H2895       H  0.93818685  0.03992357  0.91083219     0.10000
Cu2896     Cu  0.86370512  0.10484320  0.86125779     0.44200
Cu2897     Cu  0.90978828  0.09296535  0.91633667     0.42000
Cu2898     Cu  0.84452393  0.14821409  0.90583921     0.43900
N2899       N  0.83732446  0.13852003  0.85642617    -0.33600
N2900       N  0.83015957  0.15388892  0.87202190    -0.27900
C2901       C  0.81137283  0.17344364  0.86249010    -0.04000
C2902       C  0.80678882  0.17027312  0.83991642     0.08200
C2903       C  0.82362431  0.14798848  0.83672572     0.02000
H2904       H  0.80119254  0.18878762  0.87137730     0.09700
H2905       H  0.82488335  0.13916258  0.82117425     0.08800
N2906       N  0.85940920  0.13573844  0.93777188    -0.35100
N2907       N  0.88351325  0.11519609  0.94101334    -0.27300
C2908       C  0.88268802  0.11059648  0.96266164    -0.02500
C2909       C  0.85751675  0.12909072  0.97386987     0.06100
C2910       C  0.84320604  0.14489910  0.95761215     0.04200
H2911       H  0.89702072  0.09457196  0.96970830     0.09300
H2912       H  0.81924561  0.16126153  0.95990572     0.08200
C2913       C  0.93725551  0.99775059  0.88744645    -0.15400
C2914       C  0.91437059  0.01163661  0.87143918    -0.30600
H2915       H  0.95950241  0.00470547  0.90247439     0.13600
H2916       H  0.89206308  0.00498332  0.85624842     0.14200
C2917       C  0.02081756  0.14474245  0.00674168    -0.15400
C2918       C  0.83857796  0.12886632  0.99760632    -0.30600
H2919       H  0.82148972  0.16343376  0.00256689     0.13600
H2920       H  0.05399095  0.11152295  0.00218992     0.14200
C2921       C  0.84286980  0.88669582  0.01733750    -0.15400
C2922       C  0.86089830  0.86925244  0.00444762    -0.30600
H2923       H  0.83499073  0.90289505  0.00961883     0.13600
H2924       H  0.86453729  0.85253093  0.01132046     0.14200
C2925       C  0.73296864  0.01874960  0.12381652    -0.15400
C2926       C  0.75578965  0.00576659  0.14060338    -0.30600
H2927       H  0.71584720  0.01099223  0.10855553     0.13600
H2928       H  0.77209400  0.01322626  0.15611687     0.14200
C2929       C  0.74826880  0.19627798  0.24861669    -0.15400
C2930       C  0.78467814  0.18385935  0.26325872    -0.30600
H2931       H  0.71568101  0.20995685  0.25527524     0.13600
H2932       H  0.81964576  0.17019825  0.25785236     0.14200
C2933       C  0.82256002  0.25382272  0.19977333    -0.15400
C2934       C  0.79529944  0.26788045  0.18468734    -0.30600
H2935       H  0.84369038  0.26097265  0.21491768     0.13600
H2936       H  0.98253343  0.25251336  0.17375603     0.14200
C2937       C  0.86160216  0.26353381  0.32091382    -0.15400
C2938       C  0.83393969  0.25044782  0.30501398    -0.30600
H2939       H  0.87116417  0.25686900  0.33732524     0.13600
H2940       H  0.82316089  0.25793316  0.28898815     0.14200
C2941       C  0.93401592  0.31989249  0.26518040    -0.15400
C2942       C  0.91630668  0.30536065  0.24914540    -0.30600
H2943       H  0.96625845  0.33472182  0.26127220     0.13600
H2944       H  0.88525133  0.29046554  0.25372771     0.14200
C2945       C  0.91129908  0.81686622  0.27323772    -0.15400
C2946       C  0.88478735  0.83052149  0.25747743    -0.30600
H2947       H  0.94867269  0.80360906  0.26825666     0.13600
H2948       H  0.84642526  0.84376239  0.26167877     0.14200
C2949       C  0.94646136  0.75884404  0.19132188    -0.15400
C2950       C  0.96882913  0.77519513  0.20505457    -0.30600
H2951       H  0.90938313  0.76248836  0.17783856     0.13600
H2952       H  0.00487138  0.77065647  0.21854775     0.14200
C2953       C  0.07645894  0.74756857  0.31668808    -0.15400
C2954       C  0.04711998  0.76300094  0.33037252    -0.30600
H2955       H  0.11281735  0.75328928  0.30345328     0.13600
H2956       H  0.00978368  0.75809523  0.34365883     0.14200
C2957       C  0.00544289  0.69232177  0.26287028    -0.15400
C2958       C  0.02874566  0.70705426  0.24736235    -0.30600
H2959       H  0.97027220  0.67836389  0.25845576     0.13600
H2960       H  0.06276882  0.72105406  0.25245233     0.14200
C2961       C  0.00438874  0.49772853  0.89581802    -0.15400
C2962       C  0.97924720  0.51153390  0.88011410    -0.30600
H2963       H  0.02355990  0.50470501  0.91123651     0.13600
H2964       H  0.96164767  0.50497389  0.86433024     0.14200
C2965       C  0.86283505  0.37560672  0.99771843    -0.15400
C2966       C  0.89238516  0.39142903  0.01057148    -0.30600
H2967       H  0.84181885  0.36016409  0.00485053     0.13600
H2968       H  0.91500578  0.40642373  0.00295818     0.14200
C2969       C  0.90813384  0.62276168  0.01919103    -0.15400
C2970       C  0.91660539  0.63981553  0.00482118    -0.30600
H2971       H  0.90442849  0.60591572  0.01273807     0.13600
H2972       H  0.91689215  0.65693602  0.01065124     0.14200
C2973       C  0.98003724  0.51367627  0.15174150    -0.15400
C2974       C  0.00085917  0.50050762  0.13484598    -0.30600
H2975       H  0.97914777  0.50730017  0.16853539     0.13600
H2976       H  0.00612339  0.50785635  0.11849118     0.14200
C2977       C  0.77031504  0.18904730  0.76124044    -0.15400
C2978       C  0.73985633  0.20317333  0.74659417    -0.30600
H2979       H  0.80832099  0.17615599  0.75582584     0.13600
H2980       H  0.70302633  0.21613055  0.75261922     0.14200
C2981       C  0.78571846  0.27411957  0.70635711    -0.15400
C2982       C  0.80997572  0.25856678  0.69204216    -0.30600
H2983       H  0.75087344  0.26886412  0.72013678     0.13600
H2984       H  0.84644219  0.26318332  0.67843527     0.14200
C2985       C  0.73514228  0.25985225  0.82793739    -0.15400
C2986       C  0.70397683  0.24355822  0.81597188    -0.30600
H2987       H  0.77734305  0.25598179  0.83992850     0.13600
H2988       H  0.66305925  0.24829381  0.80385904     0.14200
C2989       C  0.85336916  0.31513101  0.77365512    -0.15400
C2990       C  0.87631511  0.32925546  0.75750511    -0.30600
H2991       H  0.81536321  0.30185571  0.76927415     0.13600
H2992       H  0.71015127  0.34120460  0.76040543     0.14200
C2993       C  0.86697128  0.00690844  0.63989505    -0.15400
C2994       C  0.88834716  0.02081515  0.62354569    -0.30600
H2995       H  0.85812261  0.01320466  0.65649140     0.13600
H2996       H  0.90025563  0.01392785  0.60735349     0.14200
C2997       C  0.94627467  0.14305591  0.50035195    -0.15400
C2998       C  0.91483214  0.15685937  0.51502154    -0.30600
H2999       H  0.98075229  0.12956806  0.50627053     0.13600
H3000       H  0.87979898  0.17043669  0.50955649     0.14200
C3001       C  0.95376958  0.90009377  0.50112071    -0.15400
C3002       C  0.97484549  0.88417208  0.51542827    -0.30600
H3003       H  0.94016616  0.91653695  0.50741321     0.13600
H3004       H  0.98632813  0.86737627  0.50967523     0.14200
C3005       C  0.82526161  0.01841162  0.38999153    -0.15400
C3006       C  0.80947882  0.00558191  0.37253660    -0.30600
H3007       H  0.82521617  0.01099947  0.40637001     0.13600
H3008       H  0.81425619  0.01216117  0.35586100     0.14200
C3009       C  0.92008182  0.51918913  0.64685290    -0.15400
C3010       C  0.89976146  0.50646712  0.62973494    -0.30600
H3011       H  0.91648770  0.51278293  0.66361553     0.13600
H3012       H  0.89864319  0.51380749  0.61332392     0.14200
C3013       C  0.86976455  0.37214986  0.50398833    -0.15400
C3014       C  0.84540355  0.38894701  0.51680108    -0.30600
H3015       H  0.87635586  0.35548410  0.51077950     0.13600
H3016       H  0.83572866  0.40510743  0.50919099     0.14200
C3017       C  0.79481796  0.65180037  0.50692405    -0.15400
C3018       C  0.80800494  0.63442097  0.52049628    -0.30600
H3019       H  0.79130739  0.66867723  0.51331288     0.13600
H3020       H  0.81547702  0.61797592  0.51333428     0.14200
C3021       C  0.95262572  0.51400321  0.39574802    -0.15400
C3022       C  0.97100307  0.49949229  0.37974168    -0.30600
H3023       H  0.93754615  0.50760630  0.41193916     0.13600
H3024       H  0.98432763  0.50544493  0.36322533     0.14200
C3025       C  0.87107094  0.80666819  0.76752712    -0.15400
C3026       C  0.85533486  0.82359831  0.75366657    -0.30600
H3027       H  0.88434718  0.79054097  0.76031646     0.13600
H3028       H  0.84248167  0.84012045  0.75991222     0.14200
C3029       C  0.84034473  0.75791125  0.83011434    -0.15400
C3030       C  0.80545765  0.74318720  0.81722159    -0.30600
H3031       H  0.87554442  0.75232106  0.84341948     0.13600
H3032       H  0.77171860  0.74974623  0.80394101     0.14200
C3033       C  0.00395016  0.77228395  0.69024940    -0.15400
C3034       C  0.02297665  0.75504929  0.70319165    -0.30600
H3035       H  0.96794157  0.76974233  0.67625579     0.13600
H3036       H  0.05696683  0.75837895  0.71748113     0.14200
C3037       C  0.88155037  0.70596171  0.74921567    -0.15400
C3038       C  0.88840508  0.68909541  0.76393660    -0.30600
H3039       H  0.85652282  0.72145887  0.75467924     0.13600
H3040       H  0.91717092  0.67386834  0.75945780     0.14200
loop_ 
_geom_bond_atom_site_label_1 
_geom_bond_atom_site_label_2 
_geom_bond_distance 
_geom_bond_site_symmetry_2 
_ccdc_geom_bond_type 
C1            N2   1.363       .  A
C1            N6   1.367       .  A
C1           C86   1.464       .  S
N2            C3   1.351       .  A
C3            N4   1.344       .  A
C3          C605   1.454       .  S
N4            C5   1.346       .  A
C5            N6   1.361       .  A
C5          C602   1.462       .  S
C7            N8   1.370       .  A
C7           N12   1.362       .  A
C7          C302   1.469       .  S
N8            C9   1.364       .  A
C9           N10   1.349       .  A
C9          C598   1.473       .  S
N10          C11   1.351       .  A
C11          N12   1.350       .  A
C11         C606   1.478       .  S
C13          N14   1.366       .  A
C13          N18   1.372       .  A
C13         C446   1.479       .  S
N14          C15   1.353       .  A
C15          N16   1.352       .  A
C15         C597   1.487       .  S
N16          C17   1.354       .  A
C17          N18   1.366       .  A
C17         C593   1.482       .  S
C19          N20   1.363       .  A
C19          N24   1.370       .  A
C19        C2614   1.474       .  S
N20          C21   1.353       .  A
C21          N22   1.354       .  A
C21        C3033   1.484       .  S
N22          C23   1.357       .  A
C23          N24   1.364       .  A
C23         C594   1.499       .  S
N25          C29   1.334       .  A
N25          N26   1.317       .  A
N25         Cu33   2.032       .  S
N26          C27   1.358       .  A
N26         Cu32   2.107       .  S
C27          C28   1.397       .  A
C27          H30   1.082       .  S
C28         C589   1.477       .  S
C28          C29   1.373       .  A
C29          H31   1.082       .  S
Cu32         N35   2.114       .  S
Cu33         N43   2.032       .  S
Cu34         N36   2.111       .  S
Cu34         N42   2.105       .  S
N35          C39   1.347       .  A
N35          N36   1.330       .  A
N36          C37   1.353       .  A
C37          C38   1.387       .  A
C37          H40   1.082       .  S
C38         C337   1.485       .  S
C38          C39   1.386       .  A
C39          H41   1.082       .  S
N42         C654   1.356       .  A
N42          N43   1.319       .  A
N43          C44   1.334       .  A
C44         C653   1.372       .  A
C44          H47   1.082       .  S
C45         C585   1.488       .  S
C45          C46   1.390       .  A
C45        C2476   1.386       .  A
C46        N2474   1.352       .  A
C46          H48   1.081   1_655  S
N49          C53   1.342       .  A
N49          N50   1.320       .  A
N49         Cu57   2.079       .  S
N50          C51   1.350       .  A
N50         Cu56   2.075       .  S
C51          C52   1.386       .  A
C51          H54   1.082       .  S
C52         C590   1.489       .  S
C52          C53   1.390       .  A
C53          H55   1.081       .  S
Cu56         N59   2.076       .  S
Cu57         N67   2.079       .  S
Cu58         N60   2.093       .  S
Cu58         N66   2.091       .  S
N59          C63   1.346       .  A
N59          N60   1.325       .  A
N60          C61   1.346       .  A
C61          C62   1.385       .  A
C61          H64   1.082       .  S
C62         C361   1.472       .  S
C62          C63   1.381       .  A
C63          H65   1.082       .  S
N66          C70   1.352       .  A
N66          N67   1.322       .  A
N67          C68   1.343       .  A
C68          C69   1.388       .  A
C68          H71   1.081       .  S
C69         C581   1.490       .  S
C69          C70   1.388       .  A
C70          H72   1.082       .  S
N73          C77   1.342       .  A
N73          N74   1.319       .  A
N73         Cu81   2.071       .  S
N74          C75   1.346       .  A
N74         Cu80   2.058       .  S
C75          C76   1.382       .  A
C75          H78   1.082       .  S
C76         C577   1.477       .  S
C76          C77   1.387       .  A
C77          H79   1.082       .  S
Cu80         N83   2.059       .  S
Cu81         N91   2.072       .  S
Cu82         N84   2.084       .  S
Cu82         N90   2.084       .  S
N83          C87   1.338       .  A
N83          N84   1.324       .  A
N84          C85   1.349       .  A
C85          C86   1.385       .  A
C85          H88   1.082       .  S
C86          C87   1.376       .  A
C87          H89   1.082       .  S
N90         C702   1.350       .  A
N90          N91   1.322       .  A
N91          C92   1.340       .  A
C92         C701   1.387       .  A
C92          H95   1.081       .  S
C93         C586   1.479       .  S
C93          C94   1.395       .  A
C93        C2524   1.375       .  A
C94        N2522   1.357       .  A
C94          H96   1.081   1_455  S
N97         C101   1.337       .  A
N97          N98   1.318       .  A
N97        Cu105   2.042   1_455  S
N98          C99   1.350       .  A
N98        Cu104   2.076       .  S
C99         C100   1.390       .  A
C99         H102   1.082       .  S
C100        C578   1.469       .  S
C100        C101   1.375       .  A
C101        H103   1.082       .  S
Cu104       N107   2.080       .  S
Cu105       N115   2.040   1_655  S
Cu106       N108   2.121       .  S
Cu106       N114   2.117       .  S
N107        C111   1.345       .  A
N107        N108   1.328       .  A
N108        C109   1.351       .  A
C109        C110   1.389       .  A
C109        H112   1.082       .  S
C110        C223   1.478       .  S
C110        C111   1.379       .  A
C111        H113   1.082       .  S
N114        C118   1.358       .  A
N114        N115   1.320       .  A
N115        C116   1.336       .  A
C116        C117   1.374       .  A
C116        H119   1.082   1_455  S
C117        C582   1.481       .  S
C117        C118   1.398       .  A
C118        H120   1.081       .  S
N121        C125   1.336       .  A
N121        N122   1.319       .  A
N121       Cu129   2.040       .  S
N122        C123   1.354       .  A
N122       Cu128   2.095       .  S
C123        C124   1.393       .  A
C123        H126   1.082       .  S
C124       C1182   1.473   1_565  S
C124        C125   1.374       .  A
C125        H127   1.082       .  S
Cu128       N131   2.100       .  S
Cu129       N139   2.042       .  S
Cu130       N132   2.104       .  S
Cu130       N138   2.099       .  S
N131        C135   1.348       .  A
N131        N132   1.329       .  A
N132        C133   1.348       .  A
C133        C134   1.384       .  A
C133        H136   1.082       .  S
C134        C957   1.478       .  S
C134        C135   1.383       .  A
C135        H137   1.082       .  S
N138        C142   1.356       .  A
N138        N139   1.319       .  A
N139        C140   1.336       .  A
C140        C141   1.375       .  A
C140        H143   1.082       .  S
C141        C569   1.476       .  S
C141        C142   1.394       .  A
C142        H144   1.081       .  S
N145        C149   1.334       .  A
N145        N146   1.316       .  A
N145       Cu153   2.034       .  S
N146        C147   1.354       .  A
N146       Cu152   2.082       .  S
C147        C148   1.392       .  A
C147        H150   1.082       .  S
C148        C573   1.471       .  S
C148        C149   1.375       .  A
C149        H151   1.082       .  S
Cu152       N155   2.088       .  S
Cu153       N163   2.032       .  S
Cu154       N156   2.098       .  S
Cu154       N162   2.092       .  S
N155        C159   1.340       .  A
N155        N156   1.329       .  A
N156        C157   1.351       .  A
C157        C158   1.384       .  A
C157        H160   1.082       .  S
C158        C373   1.471       .  S
C158        C159   1.378       .  A
C159        H161   1.082       .  S
N162        C166   1.355       .  A
N162        N163   1.320       .  A
N163        C164   1.332       .  A
C164        C165   1.370       .  A
C164        H167   1.082       .  S
C165        C565   1.467       .  S
C165        C166   1.392       .  A
C166        H168   1.081       .  S
N169        C781   1.338       .  A
N169        N170   1.320       .  A
N169       Cu177   2.059       .  S
N170        C779   1.348       .  A
N170       Cu176   2.063       .  S
C171       N2602   1.350       .  A
C171        C172   1.386       .  A
C171        H174   1.082       .  S
C172        C561   1.480   1_565  S
C172        C173   1.383       .  A
C173       N2601   1.340       .  A
C173        H175   1.081       .  S
Cu176       N179   2.065       .  S
Cu177       N187   2.059       .  S
Cu178       N180   2.090       .  S
Cu178       N186   2.087       .  S
N179        C183   1.346       .  A
N179        N180   1.326       .  A
N180        C181   1.343       .  A
C181        C182   1.383       .  A
C181        H184   1.082       .  S
C182        C627   1.465       .  S
C182        C183   1.378       .  A
C183        H185   1.082       .  S
N186        C190   1.352       .  A
N186        N187   1.319       .  A
N187        C188   1.339       .  A
C188        C189   1.386       .  A
C188        H191   1.081       .  S
C189        C570   1.488       .  S
C189        C190   1.390       .  A
C190        H192   1.082       .  S
N193        C197   1.339       .  A
N193        N194   1.321       .  A
N193       Cu201   2.057       .  S
N194        C195   1.350       .  A
N194       Cu200   2.083       .  S
C195        C196   1.389       .  A
C195        H198   1.081       .  S
C196        C562   1.473       .  S
C196        C197   1.378       .  A
C197        H199   1.082       .  S
Cu200       N203   2.085       .  S
Cu201       N211   2.057       .  S
Cu202       N204   2.068       .  S
Cu202       N210   2.065       .  S
N203        C207   1.348       .  A
N203        N204   1.326       .  A
N204        C205   1.340       .  A
C205        C206   1.377       .  A
C205        H208   1.082       .  S
C206        C235   1.465       .  S
C206        C207   1.383       .  A
C207        H209   1.082       .  S
N210        C214   1.350       .  A
N210        N211   1.317       .  A
N211        C212   1.336       .  A
C212        C213   1.389       .  A
C212        H215   1.080       .  S
C213        C566   1.484       .  S
C213        C214   1.387       .  A
C214        H216   1.082       .  S
C217        N222   1.370       .  A
C217        N826   1.367       .  A
C217        C934   1.479       .  S
N218        C219   1.355       .  A
N218       C2649   1.366       .  A
C219        N220   1.353       .  A
C219        C553   1.490       .  S
N220       C2653   1.353       .  A
C221        N222   1.363       .  A
C221        N828   1.353       .  A
C221        C557   1.476       .  S
C223        N224   1.365       .  A
C223        N228   1.373       .  A
N224        C225   1.357       .  A
C225        N226   1.347       .  A
C225        C549   1.465   1_455  S
N226        C227   1.352       .  A
C227        N228   1.363       .  A
C227        C558   1.496       .  S
C229        N230   1.367       .  A
C229        N234   1.370       .  A
C229        C470   1.475   1_655  S
N230        C231   1.357       .  A
C231        N232   1.350       .  A
C231        C545   1.485       .  S
N232        C233   1.347       .  A
C233        N234   1.362       .  A
C233        C554   1.472       .  S
C235        N236   1.364       .  A
C235        N240   1.366   1_455  A
N236        C237   1.353   1_455  A
C237        N238   1.352       .  A
C237        C550   1.483   1_655  S
N238        C239   1.350       .  A
C239        N240   1.358       .  A
C239        C546   1.466       .  S
N241        C245   1.336       .  A
N241        N242   1.318       .  A
N241       Cu249   2.046       .  S
N242        C243   1.352       .  A
N242       Cu248   2.084       .  S
C243        C244   1.390       .  A
C243        H246   1.082       .  S
C244        C541   1.481       .  S
C244        C245   1.382       .  A
C245        H247   1.082       .  S
Cu248       N251   2.088       .  S
Cu249       N259   2.045       .  S
Cu250       N252   2.095       .  S
Cu250       N258   2.090       .  S
N251        C255   1.346       .  A
N251        N252   1.328       .  A
N252        C253   1.346       .  A
C253        C254   1.383       .  A
C253        H256   1.082       .  S
C254        C343   1.471       .  S
C254        C255   1.381       .  A
C255        H257   1.082       .  S
N258        C262   1.354       .  A
N258        N259   1.319       .  A
N259        C260   1.336       .  A
C260        C261   1.375       .  A
C260        H263   1.082       .  S
C261        C537   1.473       .  S
C261        C262   1.392       .  A
C262        H264   1.081       .  S
N265        C269   1.338       .  A
N265        N266   1.321       .  A
N265       Cu881   2.058       .  S
N266        C267   1.352       .  A
N266       Cu272   2.082       .  S
C267        C268   1.389       .  A
C267        H270   1.082       .  S
C268        C542   1.471       .  S
C268        C269   1.376       .  A
C269        H271   1.082       .  S
Cu272       N883   2.085       .  S
Cu273       N283   2.056       .  S
Cu273      N2697   2.056       .  S
Cu274       N276   2.098       .  S
Cu274       N282   2.094       .  S
N275        C279   1.353       .  A
N275        N276   1.328   1_655  A
N275      Cu2704   2.107   1_655  S
N276        C277   1.343   1_455  A
C277        C278   1.382       .  A
C277        H280   1.082   1_655  S
C278       C2799   1.479       .  S
C278        C279   1.386       .  A
C279       H2713   1.082       .  S
H281        C887   1.082       .  S
N282        C286   1.356       .  A
N282        N283   1.319       .  A
N283        C284   1.338       .  A
C284        C285   1.378       .  A
C284        H287   1.082       .  S
C285        C534   1.478       .  S
C285        C286   1.393       .  A
C286        H288   1.081       .  S
N289        C293   1.342       .  A
N289        N290   1.319       .  A
N289       Cu297   2.071       .  S
N290        C291   1.349       .  A
N290       Cu296   2.073       .  S
C291        C292   1.386       .  A
C291        H294   1.082       .  S
C292        C530   1.485       .  S
C292        C293   1.389       .  A
C293        H295   1.081       .  S
Cu296       N299   2.075       .  S
Cu297       N307   2.072       .  S
Cu298       N300   2.083       .  S
Cu298       N306   2.083       .  S
N299        C303   1.339       .  A
N299        N300   1.325       .  A
N300        C301   1.351       .  A
C301        C302   1.384       .  A
C301        H304   1.082       .  S
C302        C303   1.380       .  A
C303        H305   1.082       .  S
N306        C310   1.350       .  A
N306        N307   1.322       .  A
N307        C308   1.340       .  A
C308        C309   1.385       .  A
C308        H311   1.081       .  S
C309        C538   1.483   1_556  S
C309        C310   1.386       .  A
C310        H312   1.082       .  S
N313       C2749   1.336       .  A
N313        N314   1.321   1_455  A
N313       Cu321   2.048       .  S
N314       C2747   1.355       .  A
N314       Cu320   2.100       .  S
C315        N922   1.355       .  A
C315        C316   1.394       .  A
C315        H318   1.081       .  S
C316        C529   1.476       .  S
C316        C317   1.374       .  A
C317        N921   1.337       .  A
C317        H319   1.082       .  S
Cu320       N323   2.103       .  S
Cu321       N331   2.048       .  S
Cu322       N324   2.100       .  S
Cu322       N330   2.096   1_655  S
N323        C327   1.352       .  A
N323        N324   1.328       .  A
N324        C325   1.344       .  A
C325        C326   1.382       .  A
C325        H328   1.082       .  S
C326       C2649   1.478       .  S
C326        C327   1.386       .  A
C327        H329   1.082       .  S
N330        C334   1.354       .  A
N330        N331   1.317       .  A
N331        C332   1.337       .  A
C332        C333   1.385       .  A
C332        H335   1.081       .  S
C333        C533   1.491   1_556  S
C333        C334   1.394       .  A
C334        H336   1.082       .  S
C337        N338   1.367       .  A
C337        N342   1.374       .  A
N338        C339   1.357       .  A
C339        N340   1.351       .  A
C339        C525   1.488       .  S
N340        C341   1.350       .  A
C341        N342   1.367       .  A
C341        C521   1.482       .  S
C343        N344   1.367       .  A
C343        N348   1.368       .  A
N344        C345   1.358       .  A
C345        N346   1.353       .  A
C345        C517   1.489       .  S
N346        C347   1.348       .  A
C347        N348   1.358       .  A
C347        C526   1.470       .  S
C349        N354   1.371       .  A
C349       N2782   1.369       .  A
C349       C2566   1.478       .  S
N350        C957   1.367       .  A
N350        C959   1.360       .  A
C351        N352   1.352       .  A
C351       N2782   1.361       .  A
C351       C2954   1.493       .  S
N352        C353   1.349       .  A
C353        N354   1.359       .  A
C353        C513   1.477       .  S
C355        N356   1.373       .  A
C355        N360   1.368       .  A
C355        C398   1.479       .  S
N356        C357   1.362       .  A
C357        N358   1.349       .  A
C357        C514   1.497       .  S
N358        C359   1.346       .  A
C359        N360   1.359       .  A
C359        C518   1.467       .  S
C361        N362   1.363       .  A
C361        N366   1.368       .  A
N362        C363   1.354       .  A
C363        N364   1.356       .  A
C363        C505   1.486       .  S
N364        C365   1.356       .  A
C365        N366   1.361       .  A
C365        C509   1.496       .  S
C367        N368   1.372       .  A
C367        N372   1.363       .  A
C367        C886   1.471       .  S
N368        C369   1.365       .  A
C369        N370   1.351       .  A
C369        C510   1.478       .  S
N370        C371   1.352       .  A
C371        N372   1.350       .  A
C371       C1110   1.473       .  S
C373        N374   1.370       .  A
C373        N378   1.364       .  A
N374        C375   1.365       .  A
C375        N376   1.349   1_455  A
C375        C506   1.472       .  S
N376        C377   1.346       .  A
C377        N378   1.351   1_655  A
C377        C498   1.462       .  S
C379        N380   1.371       .  A
C379        N384   1.366       .  A
C379        C422   1.474   1_455  S
N380        C381   1.363       .  A
C381        N382   1.346       .  A
C381        C501   1.470       .  S
N382        C383   1.347       .  A
C383        N384   1.353       .  A
C383        C497   1.472       .  S
N385        C389   1.338       .  A
N385        N386   1.316       .  A
N385       Cu393   2.047       .  S
N386        C387   1.351       .  A
N386       Cu392   2.077   1_655  S
C387        C388   1.391       .  A
C387        H390   1.082       .  S
C388        C494   1.486       .  S
C388        C389   1.387       .  A
C389        H391   1.080       .  S
Cu392       N395   2.081       .  S
Cu393       N403   2.045   1_655  S
Cu394       N396   2.127       .  S
Cu394       N402   2.122       .  S
N395        C399   1.344       .  A
N395        N396   1.329       .  A
N396        C397   1.353       .  A
C397        C398   1.390       .  A
C397        H400   1.082       .  S
C398        C399   1.377       .  A
C399        H401   1.082       .  S
N402        C406   1.361       .  A
N402        N403   1.321       .  A
N403        C404   1.335       .  A
C404        C405   1.373       .  A
C404        H407   1.082   1_455  S
C405        C489   1.481       .  S
C405        C406   1.399       .  A
C406        H408   1.082       .  S
N409        C413   1.338       .  A
N409        N410   1.319       .  A
N409       Cu417   2.052       .  S
N410        C411   1.353       .  A
N410       Cu416   2.085       .  S
C411        C412   1.391       .  A
C411        H414   1.082       .  S
C412        C493   1.474       .  S
C412        C413   1.377       .  A
C413        H415   1.082       .  S
Cu416       N419   2.088       .  S
Cu417      N2859   2.053       .  S
Cu418       N420   2.100       .  S
Cu418      N2858   2.097       .  S
N419        C423   1.343       .  A
N419        N420   1.328       .  A
N420        C421   1.351       .  A
C421        C422   1.385       .  A
C421        H424   1.082   1_655  S
C422        C423   1.381       .  A
C423        H425   1.082       .  S
N426        C430   1.354       .  A
N426        N427   1.321       .  A
N426      Cu1026   2.102       .  S
N427        C428   1.342       .  A
N427      Cu1025   2.068       .  S
C428        C429   1.386       .  A
C428        H431   1.082       .  S
C429        C485   1.491       .  S
C429        C430   1.391       .  A
C430        H432   1.082       .  S
N433        C437   1.338       .  A
N433        N434   1.323       .  A
N433       Cu441   2.065       .  S
N434        C435   1.357       .  A
N434       Cu440   2.106       .  S
C435        C436   1.393       .  A
C435        H438   1.082       .  S
C436        C481   1.479       .  S
C436        C437   1.376       .  A
C437        H439   1.082       .  S
Cu440       N443   2.108       .  S
Cu441       N451   2.066       .  S
Cu442       N444   2.090       .  S
Cu442       N450   2.087       .  S
N443        C447   1.355       .  A
N443        N444   1.327       .  A
N444        C445   1.341       .  A
C445        C446   1.381       .  A
C445        H448   1.082       .  S
C446        C447   1.388       .  A
C447        H449   1.082       .  S
N450        C454   1.353       .  A
N450        N451   1.318       .  A
N451        C452   1.341       .  A
C452        C453   1.389       .  A
C452        H455   1.081       .  S
C453        C490   1.492   1_556  S
C453        C454   1.391       .  A
C454        H456   1.082       .  S
N457        C461   1.339       .  A
N457        N458   1.318       .  A
N457       Cu465   2.060       .  S
N458        C459   1.353       .  A
N458       Cu464   2.093       .  S
C459        C460   1.393       .  A
C459        H462   1.082       .  S
C460        C482   1.492       .  S
C460        C461   1.388       .  A
C461        H463   1.080       .  S
Cu464       N467   2.096       .  S
Cu465       N475   2.060       .  S
Cu466       N468   2.094       .  S
Cu466       N474   2.091       .  S
N467        C471   1.345       .  A
N467        N468   1.327       .  A
N468        C469   1.349       .  A
C469        C470   1.384       .  A
C469        H472   1.082   1_455  S
C470        C471   1.383       .  A
C471        H473   1.082       .  S
N474        C478   1.354       .  A
N474        N475   1.321       .  A
N475        C476   1.338       .  A
C476        C477   1.378       .  A
C476        H479   1.082       .  S
C477        C486   1.476       .  S
C477        C478   1.391       .  A
C478        H480   1.081       .  S
C481        C482   1.346   1_565  D
C481        H483   1.083   1_565  S
C482        H484   1.086       .  S
C485       C1094   1.345   1_554  D
C485       H1095   1.085       .  S
C486       C2917   1.346   1_556  D
C486       H2920   1.086   1_556  S
H487       C2917   1.085   1_556  S
H488       C1094   1.086   1_554  S
C489        C490   1.345       .  D
C489        H491   1.085       .  S
C490        H492   1.085       .  S
C493        C494   1.345   1_545  D
C493        H495   1.083       .  S
C494        H496   1.085   1_565  S
C497        C498   1.341   1_455  D
C497        H499   1.086       .  S
C498        H500   1.088       .  S
C501        C502   1.341       .  D
C501        H503   1.089       .  S
C502       C2803   1.483   1_455  S
C502       H2936   1.085   1_455  S
H504       C1110   1.086       .  S
C505        C506   1.342       .  D
C505        H507   1.086       .  S
C506        H508   1.088       .  S
C509        C510   1.349       .  D
C509        H511   1.085       .  S
C510        H512   1.087       .  S
C513        C514   1.353       .  D
C513        H515   1.086       .  S
C514        H516   1.085       .  S
C517        C518   1.345       .  D
C517        H519   1.085       .  S
C518        H520   1.086       .  S
C521        C522   1.348       .  D
C521        H523   1.087       .  S
C522        C959   1.497       .  S
C522        H524   1.086       .  S
C525        C526   1.346       .  D
C525        H527   1.086       .  S
C526        H528   1.087       .  S
C529        C530   1.342       .  D
C529        H531   1.085       .  S
C530        H532   1.086       .  S
C533        C534   1.347       .  D
C533        H535   1.085       .  S
C534        H536   1.085       .  S
C537        C538   1.342       .  D
C537        H539   1.085       .  S
C538        H540   1.085       .  S
C541        C542   1.344       .  D
C541        H543   1.085       .  S
C542        H544   1.086       .  S
C545        C546   1.346       .  D
C545        H547   1.085   1_655  S
C546        H548   1.087       .  S
C549        C550   1.343   1_655  D
C549        H551   1.087       .  S
C550        H552   1.086       .  S
C553        C554   1.345       .  D
C553        H555   1.085       .  S
C554        H556   1.087       .  S
C557        C558   1.352       .  D
C557        H559   1.085       .  S
C558       H1168   1.085       .  S
H560       C2990   1.085       .  S
C561        C562   1.343       .  D
C561        H563   1.085       .  S
C562        H564   1.086       .  S
C565        C566   1.340       .  D
C565        H567   1.083       .  S
C566        H568   1.086       .  S
C569        C570   1.344       .  D
C569        H571   1.085       .  S
C570        H572   1.085       .  S
C573        C574   1.343       .  D
C573        H575   1.085       .  S
C574       C2556   1.484   1_445  S
C574        H576   1.085       .  S
C577        C578   1.339       .  D
C577        H579   1.086       .  S
C578        H580   1.086       .  S
C581        C582   1.344       .  D
C581        H583   1.085       .  S
C582        H584   1.086       .  S
C585        C586   1.345   1_655  D
C585        H587   1.085       .  S
C586        H588   1.086       .  S
C589        C590   1.342       .  D
C589        H591   1.084       .  S
C590        H592   1.086       .  S
C593        C594   1.351       .  D
C593        H595   1.087       .  S
C594        H596   1.085       .  S
C597        C598   1.343       .  D
C597        H599   1.086       .  S
C598        H600   1.088   1_455  S
C601        C629   1.481       .  S
C601        C602   1.340       .  D
C601        H603   1.086       .  S
C602        H604   1.087       .  S
C605        C606   1.338       .  D
C605        H607   1.079       .  S
C606        H608   1.086       .  S
C609        N610   1.369       .  A
C609        N614   1.370       .  A
C609        C694   1.469       .  S
N610        C611   1.356       .  A
C611        N612   1.348       .  A
C611       C1213   1.483       .  S
N612        C613   1.346       .  A
C613        N614   1.360       .  A
C613       C1210   1.470       .  S
C615        N616   1.369       .  A
C615        N620   1.367       .  A
C615        C910   1.473       .  S
N616        C617   1.357       .  A
C617        N618   1.352       .  A
C617       C1206   1.493       .  S
N618        C619   1.350       .  A
C619        N620   1.360       .  A
C619       C1214   1.471       .  S
C621        N622   1.372       .  A
C621        N626   1.370       .  A
C621       C1054   1.481       .  S
N622        C623   1.363       .  A
C623        N624   1.349       .  A
C623       C1205   1.476       .  S
N624        C625   1.350       .  A
C625        N626   1.359       .  A
C625       C1201   1.486       .  S
C627        N628   1.361       .  A
C627        N632   1.369       .  A
N628        C629   1.351       .  A
C629        N630   1.353       .  A
N630        C631   1.351       .  A
C631        N632   1.361       .  A
C631       C1202   1.474       .  S
N633        C637   1.337       .  A
N633        N634   1.318       .  A
N633       Cu641   2.046       .  S
N634        C635   1.354       .  A
N634       Cu640   2.088       .  S
C635        C636   1.392       .  A
C635        H638   1.081       .  S
C636       C1197   1.475       .  S
C636        C637   1.377       .  A
C637        H639   1.082       .  S
Cu640       N643   2.092       .  S
Cu641       N651   2.046       .  S
Cu642       N644   2.085       .  S
Cu642       N650   2.080       .  S
N643        C647   1.343       .  A
N643        N644   1.328       .  A
N644        C645   1.348       .  A
C645        C646   1.381       .  A
C645        H648   1.082       .  S
C646        C945   1.469       .  S
C646        C647   1.381       .  A
C647        H649   1.082       .  S
N650       C1262   1.352       .  A
N650        N651   1.319       .  A
N651        C652   1.334       .  A
C652       C1261   1.382       .  A
C652        H655   1.081       .  S
C653       C1193   1.474       .  S
C653        C654   1.395       .  A
C654        H656   1.081       .  S
N657        C661   1.339       .  A
N657        N658   1.319       .  A
N657       Cu665   2.060       .  S
N658        C659   1.351       .  A
N658       Cu664   2.083       .  S
C659        C660   1.389       .  A
C659        H662   1.082       .  S
C660       C1198   1.487       .  S
C660        C661   1.387       .  A
C661        H663   1.080       .  S
Cu664       N667   2.086       .  S
Cu665       N675   2.060       .  S
Cu666       N668   2.102       .  S
Cu666       N674   2.100       .  S
N667        C671   1.346       .  A
N667        N668   1.327       .  A
N668        C669   1.348       .  A
C669        C670   1.385       .  A
C669        H672   1.082       .  S
C670        C969   1.475       .  S
C670        C671   1.381       .  A
C671        H673   1.082       .  S
N674        C678   1.354       .  A
N674        N675   1.320       .  A
N675        C676   1.339       .  A
C676        C677   1.385       .  A
C676        H679   1.081       .  S
C677       C1189   1.491       .  S
C677        C678   1.392       .  A
C678        H680   1.082       .  S
N681        C685   1.337       .  A
N681        N682   1.317       .  A
N681       Cu689   2.042       .  S
N682        C683   1.348       .  A
N682       Cu688   2.070       .  S
C683        C684   1.386       .  A
C683        H686   1.082       .  S
C684       C1185   1.474       .  S
C684        C685   1.381       .  A
C685        H687   1.082       .  S
Cu688       N691   2.075       .  S
Cu689       N699   2.041       .  S
Cu690       N692   2.092       .  S
Cu690       N698   2.088       .  S
N691        C695   1.342       .  A
N691        N692   1.326       .  A
N692        C693   1.348       .  A
C693        C694   1.384       .  A
C693        H696   1.082       .  S
C694        C695   1.379       .  A
C695        H697   1.082       .  S
N698       C1310   1.353       .  A
N698        N699   1.320       .  A
N699        C700   1.334       .  A
C700       C1309   1.373       .  A
C700        H703   1.082       .  S
C701       C1194   1.485       .  S
C701        C702   1.385       .  A
C702        H704   1.082       .  S
N705        C709   1.339       .  A
N705        N706   1.318       .  A
N705       Cu713   2.048       .  S
N706        C707   1.347       .  A
N706       Cu712   2.063       .  S
C707        C708   1.386       .  A
C707        H710   1.082       .  S
C708       C1186   1.466       .  S
C708        C709   1.378       .  A
C709        H711   1.082       .  S
Cu712       N715   2.066       .  S
Cu713       N723   2.047       .  S
Cu714       N716   2.121       .  S
Cu714       N722   2.117       .  S
N715        C719   1.343       .  A
N715        N716   1.327       .  A
N716        C717   1.351       .  A
C717        C718   1.391       .  A
C717        H720   1.082       .  S
C718        C831   1.476       .  S
C718        C719   1.377       .  A
C719        H721   1.082       .  S
N722        C726   1.358       .  A
N722        N723   1.321       .  A
N723        C724   1.336       .  A
C724        C725   1.374       .  A
C724        H727   1.082       .  S
C725       C1190   1.480       .  S
C725        C726   1.396       .  A
C726        H728   1.081       .  S
N729        C733   1.337       .  A
N729        N730   1.320       .  A
N729       Cu737   2.045       .  S
N730        C731   1.356       .  A
N730       Cu736   2.103       .  S
C731        C732   1.395       .  A
C731        H734   1.082       .  S
C732       C1790   1.478   1_565  S
C732        C733   1.375       .  A
C733        H735   1.082       .  S
Cu736       N739   2.107       .  S
Cu737       N747   2.044       .  S
Cu738       N740   2.101       .  S
Cu738       N746   2.096       .  S
N739        C743   1.350       .  A
N739        N740   1.329       .  A
N740        C741   1.348       .  A
C741        C742   1.384       .  A
C741        H744   1.082       .  S
C742       C1565   1.480       .  S
C742        C743   1.385       .  A
C743        H745   1.082       .  S
N746        C750   1.355       .  A
N746        N747   1.319       .  A
N747        C748   1.336       .  A
C748        C749   1.375       .  A
C748        H751   1.082       .  S
C749       C1177   1.475       .  S
C749        C750   1.394       .  A
C750        H752   1.081       .  S
N753        C757   1.341       .  A
N753        N754   1.319       .  A
N753       Cu761   2.069       .  S
N754        C755   1.349       .  A
N754       Cu760   2.068       .  S
C755        C756   1.385       .  A
C755        H758   1.082       .  S
C756       C1181   1.482       .  S
C756        C757   1.387       .  A
C757        H759   1.081       .  S
Cu760       N763   2.069       .  S
Cu761       N771   2.068       .  S
Cu762       N764   2.087       .  S
Cu762       N770   2.085       .  S
N763        C767   1.342       .  A
N763        N764   1.325       .  A
N764        C765   1.347       .  A
C765        C766   1.384       .  A
C765        H768   1.082       .  S
C766        C981   1.466       .  S
C766        C767   1.378       .  A
C767        H769   1.082       .  S
N770        C774   1.351       .  A
N770        N771   1.321       .  A
N771        C772   1.339       .  A
C772        C773   1.386       .  A
C772        H775   1.081       .  S
C773       C1173   1.485       .  S
C773        C774   1.388       .  A
C774        H776   1.082       .  S
N777       C1389   1.341       .  A
N777        N778   1.321       .  A
N777       Cu785   2.068       .  S
N778       C1387   1.352       .  A
N778       Cu784   2.094       .  S
C779        C780   1.383       .  A
C779        H782   1.082       .  S
C780       C1169   1.475   1_565  S
C780        C781   1.384       .  A
C781        H783   1.082       .  S
Cu784       N787   2.096       .  S
Cu785       N795   2.068       .  S
Cu786       N788   2.079       .  S
Cu786       N794   2.077       .  S
N787        C791   1.348       .  A
N787        N788   1.326       .  A
N788        C789   1.344       .  A
C789        C790   1.380       .  A
C789        H792   1.082       .  S
C790       C1235   1.471       .  S
C790        C791   1.384       .  A
C791        H793   1.082       .  S
N794        C798   1.351       .  A
N794        N795   1.320       .  A
N795        C796   1.340       .  A
C796        C797   1.386       .  A
C796        H799   1.081       .  S
C797       C1178   1.485       .  S
C797        C798   1.387       .  A
C798        H800   1.082       .  S
N801        C805   1.335       .  A
N801        N802   1.319       .  A
N801       Cu809   2.038       .  S
N802        C803   1.351       .  A
N802       Cu808   2.080       .  S
C803        C804   1.390       .  A
C803        H806   1.082       .  S
C804       C1170   1.466       .  S
C804        C805   1.373       .  A
C805        H807   1.082       .  S
Cu808       N811   2.084       .  S
Cu809       N819   2.038       .  S
Cu810       N812   2.097       .  S
Cu810       N818   2.092       .  S
N811        C815   1.348       .  A
N811        N812   1.327       .  A
N812        C813   1.345       .  A
C813        C814   1.383       .  A
C813        H816   1.082       .  S
C814        C843   1.472       .  S
C814        C815   1.381       .  A
C815        H817   1.082       .  S
N818        C822   1.353       .  A
N818        N819   1.318       .  A
N819        C820   1.336       .  A
C820        C821   1.375       .  A
C820        H823   1.082       .  S
C821       C1174   1.474       .  S
C821        C822   1.393       .  A
C822        H824   1.082       .  S
C825       N1434   1.369       .  A
C825        N830   1.370       .  A
C825       C1542   1.479       .  S
N826        C827   1.357       .  A
C827        N828   1.353       .  A
C827       C1161   1.492       .  S
C829       N1436   1.351       .  A
C829        N830   1.362       .  A
C829       C1165   1.474       .  S
C831        N832   1.365       .  A
C831        N836   1.372       .  A
N832        C833   1.357       .  A
C833        N834   1.348       .  A
C833       C1157   1.464       .  S
N834        C835   1.352       .  A
C835        N836   1.362       .  A
C835       C1166   1.494       .  S
C837        N838   1.369       .  A
C837        N842   1.370       .  A
C837       C1078   1.481       .  S
N838        C839   1.358       .  A
C839        N840   1.352       .  A
C839       C1153   1.491       .  S
N840        C841   1.350       .  A
C841        N842   1.363       .  A
C841       C1162   1.477       .  S
C843        N844   1.365       .  A
C843        N848   1.370       .  A
N844        C845   1.355       .  A
C845        N846   1.351       .  A
C845       C1158   1.484       .  S
N846        C847   1.349       .  A
C847        N848   1.361       .  A
C847       C1154   1.472       .  S
N849        C853   1.336       .  A
N849        N850   1.316       .  A
N849       Cu857   2.039       .  S
N850        C851   1.351       .  A
N850       Cu856   2.078       .  S
C851        C852   1.389       .  A
C851        H854   1.082       .  S
C852       C1149   1.479       .  S
C852        C853   1.382       .  A
C853        H855   1.082       .  S
Cu856       N859   2.083       .  S
Cu857       N867   2.037       .  S
Cu858       N860   2.105       .  S
Cu858       N866   2.100       .  S
N859        C863   1.343       .  A
N859        N860   1.328       .  A
N860        C861   1.350       .  A
C861        C862   1.385       .  A
C861        H864   1.082       .  S
C862        C951   1.472       .  S
C862        C863   1.379       .  A
C863        H865   1.082       .  S
N866        C870   1.356       .  A
N866        N867   1.320       .  A
N867        C868   1.333       .  A
C868        C869   1.372       .  A
C868        H871   1.082       .  S
C869       C1145   1.472       .  S
C869        C870   1.394       .  A
C870        H872   1.082       .  S
N873        C877   1.338       .  A
N873        N874   1.319       .  A
N873      Cu1489   2.054       .  S
N874        C875   1.350       .  A
N874       Cu880   2.070       .  S
C875        C876   1.388       .  A
C875        H878   1.082       .  S
C876       C1150   1.469       .  S
C876        C877   1.378       .  A
C877        H879   1.082       .  S
Cu880      N1491   2.073       .  S
Cu881       N891   2.057       .  S
Cu882       N884   2.092       .  S
Cu882       N890   2.088       .  S
N883        C887   1.350       .  A
N883        N884   1.327       .  A
N884        C885   1.342       .  A
C885        C886   1.382       .  A
C885        H888   1.082       .  S
C886        C887   1.382       .  A
H889       C1495   1.082       .  S
N890        C894   1.354       .  A
N890        N891   1.319       .  A
N891        C892   1.338       .  A
C892        C893   1.379       .  A
C892        H895   1.082       .  S
C893       C1142   1.477       .  S
C893        C894   1.392       .  A
C894        H896   1.082       .  S
N897        C901   1.339       .  A
N897        N898   1.322       .  A
N897       Cu905   2.064       .  S
N898        C899   1.356       .  A
N898       Cu904   2.107       .  S
C899        C900   1.393       .  A
C899        H902   1.081       .  S
C900       C1138   1.481       .  S
C900        C901   1.378       .  A
C901        H903   1.082       .  S
Cu904       N907   2.110       .  S
Cu905       N915   2.063       .  S
Cu906       N908   2.070       .  S
Cu906       N914   2.067       .  S
N907        C911   1.352       .  A
N907        N908   1.327       .  A
N908        C909   1.341       .  A
C909        C910   1.376       .  A
C909        H912   1.082       .  S
C910        C911   1.388       .  A
C911        H913   1.082       .  S
N914        C918   1.351       .  A
N914        N915   1.318       .  A
N915        C916   1.338       .  A
C916        C917   1.387       .  A
C916        H919   1.081       .  S
C917       C1146   1.484   1_556  S
C917        C918   1.387       .  A
C918        H920   1.082       .  S
N921        N922   1.320       .  A
N921       Cu929   2.045       .  S
N922       Cu928   2.102       .  S
C923       N1530   1.354       .  A
C923        C924   1.394       .  A
C923        H926   1.082       .  S
C924       C1137   1.493       .  S
C924        C925   1.385       .  A
C925       N1529   1.340       .  A
C925        H927   1.080       .  S
Cu928       N931   2.106       .  S
Cu929       N939   2.045       .  S
Cu930       N932   2.098       .  S
Cu930       N938   2.094       .  S
N931        C935   1.352       .  A
N931        N932   1.328       .  A
N932        C933   1.344       .  A
C933        C934   1.382       .  A
C933        H936   1.082       .  S
C934        C935   1.386       .  A
C935        H937   1.082       .  S
N938        C942   1.354       .  A
N938        N939   1.317       .  A
N939        C940   1.337       .  A
C940        C941   1.385       .  A
C940        H943   1.081       .  S
C941       C1141   1.489   1_556  S
C941        C942   1.394       .  A
C942        H944   1.082       .  S
C945        N946   1.364       .  A
C945        N950   1.369       .  A
N946        C947   1.353       .  A
C947        N948   1.354       .  A
C947       C1133   1.482       .  S
N948        C949   1.351       .  A
C949        N950   1.361       .  A
C949       C1129   1.476       .  S
C951        N952   1.370       .  A
C951        N956   1.369       .  A
N952        C953   1.361       .  A
C953        N954   1.344       .  A
C953       C1125   1.464       .  S
N954        C955   1.341       .  A
C955        N956   1.356       .  A
C955       C1134   1.461       .  S
C957        N962   1.367       .  A
N958       C1565   1.369       .  A
N958       C1567   1.360       .  A
C959        N960   1.359       .  A
N960        C961   1.360       .  A
C961        N962   1.360       .  A
C961       C1121   1.498       .  S
C963        N964   1.376       .  A
C963        N968   1.365       .  A
C963       C1006   1.477       .  S
N964        C965   1.368       .  A
C965        N966   1.348       .  A
C965       C1122   1.484       .  S
N966        C967   1.350       .  A
C967        N968   1.351       .  A
C967       C1126   1.480       .  S
C969        N970   1.368       .  A
C969        N974   1.370       .  A
N970        C971   1.359       .  A
C971        N972   1.345       .  A
C971       C1113   1.471       .  S
N972        C973   1.351       .  A
C973        N974   1.360       .  A
C973       C1117   1.490       .  S
C975        N976   1.368       .  A
C975        N980   1.367       .  A
C975       C1494   1.467       .  S
N976        C977   1.356       .  A
C977        N978   1.348       .  A
C977       C1118   1.468       .  S
N978        C979   1.352       .  A
C979        N980   1.357       .  A
C979       C1718   1.482       .  S
C981        N982   1.365       .  A
C981        N986   1.366       .  A
N982        C983   1.357       .  A
C983        N984   1.356       .  A
C983       C1114   1.488       .  S
N984        C985   1.351       .  A
C985        N986   1.356       .  A
C985       C1106   1.471       .  S
C987        N988   1.366       .  A
C987        N992   1.371       .  A
C987       C1030   1.475       .  S
N988        C989   1.357       .  A
C989        N990   1.344       .  A
C989       C1109   1.463       .  S
N990        C991   1.349       .  A
C991        N992   1.361       .  A
C991       C1105   1.482       .  S
N993        C997   1.334       .  A
N993        N994   1.318       .  A
N993      Cu1001   2.039       .  S
N994        C995   1.354       .  A
N994      Cu1000   2.092       .  S
C995        C996   1.394       .  A
C995        H998   1.082       .  S
C996       C1102   1.486   1_565  S
C996        C997   1.382       .  A
C997        H999   1.080       .  S
Cu1000     N1003   2.096       .  S
Cu1001     N1011   2.041       .  S
Cu1002     N1004   2.110       .  S
Cu1002     N1010   2.104       .  S
N1003      C1007   1.352       .  A
N1003      N1004   1.329       .  A
N1004      C1005   1.343       .  A
C1005      C1006   1.384       .  A
C1005      H1008   1.082       .  S
C1006      C1007   1.383       .  A
C1007      H1009   1.082       .  S
N1010      C1014   1.357       .  A
N1010      N1011   1.317       .  A
N1011      C1012   1.337       .  A
C1012      C1013   1.376       .  A
C1012      H1015   1.082       .  S
C1013      C1097   1.480       .  S
C1013      C1014   1.397       .  A
C1014      H1016   1.082       .  S
N1017      C1021   1.339       .  A
N1017      N1018   1.321       .  A
N1017     Cu1025   2.068       .  S
N1018      C1019   1.350       .  A
N1018     Cu1024   2.072       .  S
C1019      C1020   1.386       .  A
C1019      H1022   1.082       .  S
C1020      C1101   1.471       .  S
C1020      C1021   1.380       .  A
C1021      H1023   1.082       .  S
Cu1024     N1027   2.074       .  S
Cu1026     N1028   2.105       .  S
N1027      C1031   1.345       .  A
N1027      N1028   1.326       .  A
N1028      C1029   1.348       .  A
C1029      C1030   1.387       .  A
C1029      H1032   1.082       .  S
C1030      C1031   1.380       .  A
C1031      H1033   1.082       .  S
N1034      C1038   1.355       .  A
N1034      N1035   1.320       .  A
N1034     Cu1634   2.100       .  S
N1035      C1036   1.338       .  A
N1035     Cu1633   2.058       .  S
C1036      C1037   1.384       .  A
C1036      H1039   1.082       .  S
C1037      C1093   1.490       .  S
C1037      C1038   1.392       .  A
C1038      H1040   1.082       .  S
N1041      C1045   1.340       .  A
N1041      N1042   1.321       .  A
N1041     Cu1049   2.064       .  S
N1042      C1043   1.354       .  A
N1042     Cu1048   2.095       .  S
C1043      C1044   1.391       .  A
C1043      H1046   1.082       .  S
C1044      C1089   1.478   1_565  S
C1044      C1045   1.378       .  A
C1045      H1047   1.082       .  S
Cu1048     N1051   2.098       .  S
Cu1049     N1059   2.065       .  S
Cu1050     N1052   2.101       .  S
Cu1050     N1058   2.098       .  S
N1051      C1055   1.347       .  A
N1051      N1052   1.327       .  A
N1052      C1053   1.350       .  A
C1053      C1054   1.386       .  A
C1053      H1056   1.082       .  S
C1054      C1055   1.385       .  A
C1055      H1057   1.082       .  S
N1058      C1062   1.353       .  A
N1058      N1059   1.321       .  A
N1059      C1060   1.341       .  A
C1060      C1061   1.385       .  A
C1060      H1063   1.082       .  S
C1061      C1098   1.489   1_556  S
C1061      C1062   1.390       .  A
C1062      H1064   1.082       .  S
N1065      C1069   1.339       .  A
N1065      N1066   1.317       .  A
N1065     Cu1073   2.051       .  S
N1066      C1067   1.352       .  A
N1066     Cu1072   2.090       .  S
C1067      C1068   1.393       .  A
C1067      H1070   1.082       .  S
C1068      C1090   1.490       .  S
C1068      C1069   1.386       .  A
C1069      H1071   1.080       .  S
Cu1072     N1075   2.094       .  S
Cu1073     N1083   2.051       .  S
Cu1074     N1076   2.115       .  S
Cu1074     N1082   2.111       .  S
N1075      C1079   1.345       .  A
N1075      N1076   1.328       .  A
N1076      C1077   1.353       .  A
C1077      C1078   1.388       .  A
C1077      H1080   1.082       .  S
C1078      C1079   1.382       .  A
C1079      H1081   1.082       .  S
N1082      C1086   1.358       .  A
N1082      N1083   1.321       .  A
N1083      C1084   1.337       .  A
C1084      C1085   1.375       .  A
C1084      H1087   1.082       .  S
C1085      C1094   1.481       .  S
C1085      C1086   1.396       .  A
C1086      H1088   1.082       .  S
C1089      C1090   1.347       .  D
C1089      H1091   1.083       .  S
C1090      H1092   1.085       .  S
C1093      C1702   1.346   1_554  D
C1093      H1703   1.085       .  S
H1096      C1702   1.086   1_554  S
C1097      C1098   1.345       .  D
C1097      H1099   1.086       .  S
C1098      H1100   1.085       .  S
C1101      C1102   1.347       .  D
C1101      H1103   1.082       .  S
C1102      H1104   1.085       .  S
C1105      C1106   1.348       .  D
C1105      H1107   1.085       .  S
C1106      H1108   1.088       .  S
C1109      C1110   1.337       .  D
C1109      H1111   1.089       .  S
H1112      C1718   1.085       .  S
C1113      C1114   1.344       .  D
C1113      H1115   1.087       .  S
C1114      H1116   1.086       .  S
C1117      C1118   1.348       .  D
C1117      H1119   1.085       .  S
C1118      H1120   1.083       .  S
C1121      C1122   1.346       .  D
C1121      H1123   1.085       .  S
C1122      H1124   1.088       .  S
C1125      C1126   1.337       .  D
C1125      H1127   1.089       .  S
C1126      H1128   1.085       .  S
C1129      C1130   1.350       .  D
C1129      H1131   1.087       .  S
C1130      C1567   1.493       .  S
C1130      H1132   1.086       .  S
C1133      C1134   1.340       .  D
C1133      H1135   1.085       .  S
C1134      H1136   1.083       .  S
C1137      C1138   1.348       .  D
C1137      H1139   1.085       .  S
C1138      H1140   1.083       .  S
C1141      C1142   1.347       .  D
C1141      H1143   1.086       .  S
C1142      H1144   1.084       .  S
C1145      C1146   1.341       .  D
C1145      H1147   1.086       .  S
C1146      H1148   1.085       .  S
C1149      C1150   1.343       .  D
C1149      H1151   1.085       .  S
C1150      H1152   1.086       .  S
C1153      C1154   1.348       .  D
C1153      H1155   1.085       .  S
C1154      H1156   1.086       .  S
C1157      C1158   1.344       .  D
C1157      H1159   1.087       .  S
C1158      H1160   1.086       .  S
C1161      C1162   1.347       .  D
C1161      H1163   1.086       .  S
C1162      H1164   1.087       .  S
C1165      C1166   1.350       .  D
C1165      H1167   1.087       .  S
C1166      H1776   1.085       .  S
C1169      C1170   1.339       .  D
C1169      H1171   1.085       .  S
C1170      H1172   1.086       .  S
C1173      C1174   1.343       .  D
C1173      H1175   1.085       .  S
C1174      H1176   1.085       .  S
C1177      C1178   1.343       .  D
C1177      H1179   1.085       .  S
C1178      H1180   1.085       .  S
C1181      C1182   1.341       .  D
C1181      H1183   1.085       .  S
C1182      H1184   1.086       .  S
C1185      C1186   1.341       .  D
C1185      H1187   1.085       .  S
C1186      H1188   1.086       .  S
C1189      C1190   1.346       .  D
C1189      H1191   1.085       .  S
C1190      H1192   1.086       .  S
C1193      C1194   1.341       .  D
C1193      H1195   1.085       .  S
C1194      H1196   1.086       .  S
C1197      C1198   1.344       .  D
C1197      H1199   1.083       .  S
C1198      H1200   1.085       .  S
C1201      C1202   1.347       .  D
C1201      H1203   1.085       .  S
C1202      H1204   1.089       .  S
C1205      C1206   1.347       .  D
C1205      H1207   1.087       .  S
C1206      H1208   1.085       .  S
C1209      C1237   1.492       .  S
C1209      C1210   1.347       .  D
C1209      H1211   1.085       .  S
C1210      H1212   1.087       .  S
C1213      C1214   1.345       .  D
C1213      H1215   1.085       .  S
C1214      H1216   1.088       .  S
C1217      N1218   1.372       .  A
C1217      N1222   1.374       .  A
C1217      C1302   1.486       .  S
N1218      C1219   1.358       .  A
C1219      N1220   1.351       .  A
C1219      C1821   1.496       .  S
N1220      C1221   1.349       .  A
C1221      N1222   1.366       .  A
C1221      C1818   1.484       .  S
C1223      N1224   1.367       .  A
C1223      N1228   1.373       .  A
C1223      C1518   1.478       .  S
N1224      C1225   1.354       .  A
C1225      N1226   1.351       .  A
C1225      C1814   1.488       .  S
N1226      C1227   1.351       .  A
C1227      N1228   1.365       .  A
C1227      C1822   1.481       .  S
C1229      N1230   1.371       .  A
C1229      N1234   1.368       .  A
C1229      C1662   1.475       .  S
N1230      C1231   1.360       .  A
C1231      N1232   1.347       .  A
C1231      C1813   1.472       .  S
N1232      C1233   1.350       .  A
C1233      N1234   1.358       .  A
C1233      C1809   1.482       .  S
C1235      N1236   1.369       .  A
C1235      N1240   1.367       .  A
N1236      C1237   1.358       .  A
C1237      N1238   1.353       .  A
N1238      C1239   1.347       .  A
C1239      N1240   1.358       .  A
C1239      C1810   1.470       .  S
N1241      C1245   1.343       .  A
N1241      N1242   1.319       .  A
N1241     Cu1249   2.071       .  S
N1242      C1243   1.351       .  A
N1242     Cu1248   2.089       .  S
C1243      C1244   1.389       .  A
C1243      H1246   1.082       .  S
C1244      C1805   1.492       .  S
C1244      C1245   1.389       .  A
C1245      H1247   1.081       .  S
Cu1248     N1251   2.092       .  S
Cu1249     N1259   2.071       .  S
Cu1250     N1252   2.107       .  S
Cu1250     N1258   2.105       .  S
N1251      C1255   1.347       .  A
N1251      N1252   1.327       .  A
N1252      C1253   1.349       .  A
C1253      C1254   1.386       .  A
C1253      H1256   1.082       .  S
C1254      C1553   1.479       .  S
C1254      C1255   1.383       .  A
C1255      H1257   1.082       .  S
N1258      C1870   1.356       .  A
N1258      N1259   1.321       .  A
N1259      C1260   1.340       .  A
C1260      C1869   1.386       .  A
C1260      H1263   1.081       .  S
C1261      C1801   1.481       .  S
C1261      C1262   1.389       .  A
C1262      H1264   1.082       .  S
N1265      C1269   1.338       .  A
N1265      N1266   1.320       .  A
N1265     Cu1273   2.047       .  S
N1266      C1267   1.357       .  A
N1266     Cu1272   2.110       .  S
C1267      C1268   1.396       .  A
C1267      H1270   1.081       .  S
C1268      C1806   1.482       .  S
C1268      C1269   1.376       .  A
C1269      H1271   1.082       .  S
Cu1272     N1275   2.115       .  S
Cu1273     N1283   2.047       .  S
Cu1274     N1276   2.104       .  S
Cu1274     N1282   2.099       .  S
N1275      C1279   1.350       .  A
N1275      N1276   1.329       .  A
N1276      C1277   1.349       .  A
C1277      C1278   1.384       .  A
C1277      H1280   1.082       .  S
C1278      C1577   1.483       .  S
C1278      C1279   1.387       .  A
C1279      H1281   1.082       .  S
N1282      C1286   1.356       .  A
N1282      N1283   1.318       .  A
N1283      C1284   1.336       .  A
C1284      C1285   1.382       .  A
C1284      H1287   1.082       .  S
C1285      C1797   1.489       .  S
C1285      C1286   1.394       .  A
C1286      H1288   1.082       .  S
N1289      C1293   1.341       .  A
N1289      N1290   1.318       .  A
N1289     Cu1297   2.061       .  S
N1290      C1291   1.352       .  A
N1290     Cu1296   2.088       .  S
C1291      C1292   1.390       .  A
C1291      H1294   1.082       .  S
C1292      C1793   1.487       .  S
C1292      C1293   1.386       .  A
C1293      H1295   1.081       .  S
Cu1296     N1299   2.092       .  S
Cu1297     N1307   2.060       .  S
Cu1298     N1300   2.125       .  S
Cu1298     N1306   2.122       .  S
N1299      C1303   1.344       .  A
N1299      N1300   1.328       .  A
N1300      C1301   1.356       .  A
C1301      C1302   1.392       .  A
C1301      H1304   1.082       .  S
C1302      C1303   1.382       .  A
C1303      H1305   1.082       .  S
N1306      C1918   1.360       .  A
N1306      N1307   1.323       .  A
N1307      C1308   1.337       .  A
C1308      C1917   1.376       .  A
C1308      H1311   1.082       .  S
C1309      C1802   1.468       .  S
C1309      C1310   1.390       .  A
C1310      H1312   1.081       .  S
N1313      C1317   1.339       .  A
N1313      N1314   1.319       .  A
N1313     Cu1321   2.055       .  S
N1314      C1315   1.354       .  A
N1314     Cu1320   2.091       .  S
C1315      C1316   1.392       .  A
C1315      H1318   1.082       .  S
C1316      C1794   1.478       .  S
C1316      C1317   1.378       .  A
C1317      H1319   1.082       .  S
Cu1320     N1323   2.095       .  S
Cu1321     N1331   2.053       .  S
Cu1322     N1324   2.104       .  S
Cu1322     N1330   2.100       .  S
N1323      C1327   1.347       .  A
N1323      N1324   1.328       .  A
N1324      C1325   1.349       .  A
C1325      C1326   1.385       .  A
C1325      H1328   1.082       .  S
C1326      C1439   1.477       .  S
C1326      C1327   1.382       .  A
C1327      H1329   1.082       .  S
N1330      C1334   1.357       .  A
N1330      N1331   1.320       .  A
N1331      C1332   1.336       .  A
C1332      C1333   1.376       .  A
C1332      H1335   1.082       .  S
C1333      C1798   1.477       .  S
C1333      C1334   1.394       .  A
C1334      H1336   1.081       .  S
N1337      C1341   1.337       .  A
N1337      N1338   1.320       .  A
N1337     Cu1345   2.052       .  S
N1338      C1339   1.352       .  A
N1338     Cu1344   2.088       .  S
C1339      C1340   1.389       .  A
C1339      H1342   1.082       .  S
C1340      C2398   1.483   1_565  S
C1340      C1341   1.383       .  A
C1341      H1343   1.082       .  S
Cu1344     N1347   2.091       .  S
Cu1345     N1355   2.052       .  S
Cu1346     N1348   2.084       .  S
Cu1346     N1354   2.081       .  S
N1347      C1351   1.347       .  A
N1347      N1348   1.327       .  A
N1348      C1349   1.344       .  A
C1349      C1350   1.381       .  A
C1349      H1352   1.082       .  S
C1350      C2173   1.471       .  S
C1350      C1351   1.383       .  A
C1351      H1353   1.082       .  S
N1354      C1358   1.351       .  A
N1354      N1355   1.319       .  A
N1355      C1356   1.338       .  A
C1356      C1357   1.377       .  A
C1356      H1359   1.082       .  S
C1357      C1785   1.472       .  S
C1357      C1358   1.389       .  A
C1358      H1360   1.081       .  S
N1361      C1365   1.340       .  A
N1361      N1362   1.321       .  A
N1361     Cu1369   2.071       .  S
N1362      C1363   1.353       .  A
N1362     Cu1368   2.092       .  S
C1363      C1364   1.389       .  A
C1363      H1366   1.082       .  S
C1364      C1789   1.488       .  S
C1364      C1365   1.385       .  A
C1365      H1367   1.081       .  S
Cu1368     N1371   2.093       .  S
Cu1369     N1379   2.072       .  S
Cu1370     N1372   2.082       .  S
Cu1370     N1378   2.080       .  S
N1371      C1375   1.348       .  A
N1371      N1372   1.326       .  A
N1372      C1373   1.345       .  A
C1373      C1374   1.381       .  A
C1373      H1376   1.082       .  S
C1374      C1589   1.472       .  S
C1374      C1375   1.384       .  A
C1375      H1377   1.082       .  S
N1378      C1382   1.350       .  A
N1378      N1379   1.320       .  A
N1379      C1380   1.342       .  A
C1380      C1381   1.388       .  A
C1380      H1383   1.081       .  S
C1381      C1781   1.487       .  S
C1381      C1382   1.387       .  A
C1382      H1384   1.082       .  S
N1385      C1997   1.335       .  A
N1385      N1386   1.318       .  A
N1385     Cu1393   2.043       .  S
N1386      C1995   1.355       .  A
N1386     Cu1392   2.090       .  S
C1387      C1388   1.390       .  A
C1387      H1390   1.082       .  S
C1388      C1777   1.489       .  S
C1388      C1389   1.386       .  A
C1389      H1391   1.081       .  S
Cu1392     N1395   2.095       .  S
Cu1393     N1403   2.043       .  S
Cu1394     N1396   2.089       .  S
Cu1394     N1402   2.084       .  S
N1395      C1399   1.344       .  A
N1395      N1396   1.328       .  A
N1396      C1397   1.347       .  A
C1397      C1398   1.381       .  A
C1397      H1400   1.082       .  S
C1398      C1843   1.470       .  S
C1398      C1399   1.382       .  A
C1399      H1401   1.082       .  S
N1402      C1406   1.352       .  A
N1402      N1403   1.318       .  A
N1403      C1404   1.336       .  A
C1404      C1405   1.382       .  A
C1404      H1407   1.081       .  S
C1405      C1786   1.482       .  S
C1405      C1406   1.390       .  A
C1406      H1408   1.082       .  S
N1409      C1413   1.337       .  A
N1409      N1410   1.319       .  A
N1409     Cu1417   2.046       .  S
N1410      C1411   1.357       .  A
N1410     Cu1416   2.105       .  S
C1411      C1412   1.396       .  A
C1411      H1414   1.082       .  S
C1412      C1778   1.480       .  S
C1412      C1413   1.376       .  A
C1413      H1415   1.082       .  S
Cu1416     N1419   2.109       .  S
Cu1417     N1427   2.046       .  S
Cu1418     N1420   2.107       .  S
Cu1418     N1426   2.102       .  S
N1419      C1423   1.349       .  A
N1419      N1420   1.329       .  A
N1420      C1421   1.350       .  A
C1421      C1422   1.385       .  A
C1421      H1424   1.082       .  S
C1422      C1451   1.482       .  S
C1422      C1423   1.385       .  A
C1423      H1425   1.082       .  S
N1426      C1430   1.356       .  A
N1426      N1427   1.319       .  A
N1427      C1428   1.337       .  A
C1428      C1429   1.375       .  A
C1428      H1431   1.082       .  S
C1429      C1782   1.478       .  S
C1429      C1430   1.395       .  A
C1430      H1432   1.081       .  S
C1433      N2042   1.366       .  A
C1433      N1438   1.373       .  A
C1433      C2150   1.475       .  S
N1434      C1435   1.358       .  A
C1435      N1436   1.353       .  A
C1435      C1769   1.494       .  S
C1437      N2044   1.348       .  A
C1437      N1438   1.363       .  A
C1437      C1773   1.478       .  S
C1439      N1440   1.367       .  A
C1439      N1444   1.369       .  A
N1440      C1441   1.358       .  A
C1441      N1442   1.352       .  A
C1441      C1765   1.475       .  S
N1442      C1443   1.356       .  A
C1443      N1444   1.360       .  A
C1443      C1774   1.496       .  S
C1445      N1446   1.368       .  A
C1445      N1450   1.371       .  A
C1445      C1686   1.478       .  S
N1446      C1447   1.357       .  A
C1447      N1448   1.352       .  A
C1447      C1761   1.489       .  S
N1448      C1449   1.350       .  A
C1449      N1450   1.363       .  A
C1449      C1770   1.477       .  S
C1451      N1452   1.371       .  A
C1451      N1456   1.369       .  A
N1452      C1453   1.363       .  A
C1453      N1454   1.350       .  A
C1453      C1766   1.493       .  S
N1454      C1455   1.347       .  A
C1455      N1456   1.359       .  A
C1455      C1762   1.469       .  S
N1457      C1461   1.341       .  A
N1457      N1458   1.321       .  A
N1457     Cu1465   2.073       .  S
N1458      C1459   1.350       .  A
N1458     Cu1464   2.080       .  S
C1459      C1460   1.386       .  A
C1459      H1462   1.082       .  S
C1460      C1757   1.485       .  S
C1460      C1461   1.387       .  A
C1461      H1463   1.081       .  S
Cu1464     N1467   2.081       .  S
Cu1465     N1475   2.072       .  S
Cu1466     N1468   2.079       .  S
Cu1466     N1474   2.077       .  S
N1467      C1471   1.346       .  A
N1467      N1468   1.325       .  A
N1468      C1469   1.344       .  A
C1469      C1470   1.382       .  A
C1469      H1472   1.082       .  S
C1470      C1559   1.469       .  S
C1470      C1471   1.382       .  A
C1471      H1473   1.082       .  S
N1474      C1478   1.350       .  A
N1474      N1475   1.320       .  A
N1475      C1476   1.341       .  A
C1476      C1477   1.388       .  A
C1476      H1479   1.081       .  S
C1477      C1753   1.485       .  S
C1477      C1478   1.386       .  A
C1478      H1480   1.082       .  S
N1481      C1485   1.336       .  A
N1481      N1482   1.320       .  A
N1481     Cu2097   2.049       .  S
N1482      C1483   1.355       .  A
N1482     Cu1488   2.096       .  S
C1483      C1484   1.393       .  A
C1483      H1486   1.082       .  S
C1484      C1758   1.475       .  S
C1484      C1485   1.375       .  A
C1485      H1487   1.082       .  S
Cu1488     N2099   2.100       .  S
Cu1489     N1499   2.053       .  S
Cu1490     N1492   2.093       .  S
Cu1490     N1498   2.089       .  S
N1491      C1495   1.343       .  A
N1491      N1492   1.326       .  A
N1492      C1493   1.347       .  A
C1493      C1494   1.384       .  A
C1493      H1496   1.082       .  S
C1494      C1495   1.378       .  A
H1497      C2103   1.082       .  S
N1498      C1502   1.353       .  A
N1498      N1499   1.320       .  A
N1499      C1500   1.337       .  A
C1500      C1501   1.376       .  A
C1500      H1503   1.082       .  S
C1501      C1750   1.474       .  S
C1501      C1502   1.391       .  A
C1502      H1504   1.081       .  S
N1505      C1509   1.333       .  A
N1505      N1506   1.319       .  A
N1505     Cu1513   2.033       .  S
N1506      C1507   1.357       .  A
N1506     Cu1512   2.100       .  S
C1507      C1508   1.395       .  A
C1507      H1510   1.081       .  S
C1508      C1746   1.473       .  S
C1508      C1509   1.371       .  A
C1509      H1511   1.082       .  S
Cu1512     N1515   2.106       .  S
Cu1513     N1523   2.033       .  S
Cu1514     N1516   2.100       .  S
Cu1514     N1522   2.094       .  S
N1515      C1519   1.353       .  A
N1515      N1516   1.329       .  A
N1516      C1517   1.343       .  A
C1517      C1518   1.382       .  A
C1517      H1520   1.082       .  S
C1518      C1519   1.385       .  A
C1519      H1521   1.082       .  S
N1522      C1526   1.355       .  A
N1522      N1523   1.317       .  A
N1523      C1524   1.335       .  A
C1524      C1525   1.374       .  A
C1524      H1527   1.082       .  S
C1525      C1754   1.474   1_556  S
C1525      C1526   1.395       .  A
C1526      H1528   1.081       .  S
N1529      N1530   1.320       .  A
N1529     Cu1537   2.057       .  S
N1530     Cu1536   2.109       .  S
C1531      N2138   1.351       .  A
C1531      C1532   1.389       .  A
C1531      H1534   1.082       .  S
C1532      C1745   1.488       .  S
C1532      C1533   1.388       .  A
C1533      N2137   1.338       .  A
C1533      H1535   1.080       .  S
Cu1536     N1539   2.112       .  S
Cu1537     N1547   2.057       .  S
Cu1538     N1540   2.084       .  S
Cu1538     N1546   2.081       .  S
N1539      C1543   1.352       .  A
N1539      N1540   1.327       .  A
N1540      C1541   1.344       .  A
C1541      C1542   1.381       .  A
C1541      H1544   1.082       .  S
C1542      C1543   1.388       .  A
C1543      H1545   1.082       .  S
N1546      C1550   1.351       .  A
N1546      N1547   1.318       .  A
N1547      C1548   1.338       .  A
C1548      C1549   1.386       .  A
C1548      H1551   1.081       .  S
C1549      C1749   1.485       .  S
C1549      C1550   1.389       .  A
C1550      H1552   1.082       .  S
C1553      N1554   1.372       .  A
C1553      N1558   1.369       .  A
N1554      C1555   1.362       .  A
C1555      N1556   1.350       .  A
C1555      C1741   1.493       .  S
N1556      C1557   1.344       .  A
C1557      N1558   1.359       .  A
C1557      C1737   1.469       .  S
C1559      N1560   1.367       .  A
C1559      N1564   1.368       .  A
N1560      C1561   1.357       .  A
C1561      N1562   1.352       .  A
C1561      C1733   1.490       .  S
N1562      C1563   1.350       .  A
C1563      N1564   1.358       .  A
C1563      C1742   1.472       .  S
C1565      N1570   1.370       .  A
N1566      C2173   1.366       .  A
N1566      C2175   1.356       .  A
C1567      N1568   1.353       .  A
N1568      C1569   1.350       .  A
C1569      N1570   1.361       .  A
C1569      C1729   1.475       .  S
C1571      N1572   1.371       .  A
C1571      N1576   1.367       .  A
C1571      C1614   1.476       .  S
N1572      C1573   1.361       .  A
C1573      N1574   1.352       .  A
C1573      C1730   1.495       .  S
N1574      C1575   1.348       .  A
C1575      N1576   1.358       .  A
C1575      C1734   1.470       .  S
C1577      N1578   1.372       .  A
C1577      N1582   1.371       .  A
N1578      C1579   1.361       .  A
C1579      N1580   1.347       .  A
C1579      C1721   1.477       .  S
N1580      C1581   1.351       .  A
C1581      N1582   1.362       .  A
C1581      C1725   1.493       .  S
C1583      N1584   1.370       .  A
C1583      N1588   1.370       .  A
C1583      C2102   1.478       .  S
N1584      C1585   1.359       .  A
C1585      N1586   1.349       .  A
C1585      C1726   1.472       .  S
N1586      C1587   1.352       .  A
C1587      N1588   1.360       .  A
C1587      C2326   1.488       .  S
C1589      N1590   1.368       .  A
C1589      N1594   1.367       .  A
N1590      C1591   1.359       .  A
C1591      N1592   1.356       .  A
C1591      C1722   1.495       .  S
N1592      C1593   1.353       .  A
C1593      N1594   1.358       .  A
C1593      C1714   1.475       .  S
C1595      N1596   1.367       .  A
C1595      N1600   1.372       .  A
C1595      C1638   1.477       .  S
N1596      C1597   1.357       .  A
C1597      N1598   1.346       .  A
C1597      C1717   1.468       .  S
N1598      C1599   1.350       .  A
C1599      N1600   1.362       .  A
C1599      C1713   1.488       .  S
N1601      C1605   1.337       .  A
N1601      N1602   1.317       .  A
N1601     Cu1609   2.045       .  S
N1602      C1603   1.351       .  A
N1602     Cu1608   2.085       .  S
C1603      C1604   1.391       .  A
C1603      H1606   1.082       .  S
C1604      C1710   1.486   1_565  S
C1604      C1605   1.385       .  A
C1605      H1607   1.080       .  S
Cu1608     N1611   2.090       .  S
Cu1609     N1619   2.045       .  S
Cu1610     N1612   2.111       .  S
Cu1610     N1618   2.106       .  S
N1611      C1615   1.346       .  A
N1611      N1612   1.329       .  A
N1612      C1613   1.349       .  A
C1613      C1614   1.386       .  A
C1613      H1616   1.082       .  S
C1614      C1615   1.381       .  A
C1615      H1617   1.082       .  S
N1618      C1622   1.358       .  A
N1618      N1619   1.320       .  A
N1619      C1620   1.335       .  A
C1620      C1621   1.374       .  A
C1620      H1623   1.082       .  S
C1621      C1705   1.476       .  S
C1621      C1622   1.395       .  A
C1622      H1624   1.082       .  S
N1625      C1629   1.339       .  A
N1625      N1626   1.320       .  A
N1625     Cu1633   2.058       .  S
N1626      C1627   1.352       .  A
N1626     Cu1632   2.085       .  S
C1627      C1628   1.389       .  A
C1627      H1630   1.081       .  S
C1628      C1709   1.474       .  S
C1628      C1629   1.378       .  A
C1629      H1631   1.082       .  S
Cu1632     N1635   2.088       .  S
Cu1634     N1636   2.103       .  S
N1635      C1639   1.348       .  A
N1635      N1636   1.327       .  A
N1636      C1637   1.347       .  A
C1637      C1638   1.385       .  A
C1637      H1640   1.082       .  S
C1638      C1639   1.382       .  A
C1639      H1641   1.082       .  S
N1642      C1646   1.353       .  A
N1642      N1643   1.319       .  A
N1642     Cu2242   2.089       .  S
N1643      C1644   1.338       .  A
N1643     Cu2241   2.056       .  S
C1644      C1645   1.385       .  A
C1644      H1647   1.081       .  S
C1645      C1701   1.488       .  S
C1645      C1646   1.391       .  A
C1646      H1648   1.082       .  S
N1649      C1653   1.339       .  A
N1649      N1650   1.321       .  A
N1649     Cu1657   2.059       .  S
N1650      C1651   1.355       .  A
N1650     Cu1656   2.097       .  S
C1651      C1652   1.392       .  A
C1651      H1654   1.081       .  S
C1652      C1697   1.478   1_565  S
C1652      C1653   1.377       .  A
C1653      H1655   1.082       .  S
Cu1656     N1659   2.101       .  S
Cu1657     N1667   2.060       .  S
Cu1658     N1660   2.090       .  S
Cu1658     N1666   2.087       .  S
N1659      C1663   1.348       .  A
N1659      N1660   1.327       .  A
N1660      C1661   1.347       .  A
C1661      C1662   1.382       .  A
C1661      H1664   1.082       .  S
C1662      C1663   1.385       .  A
C1663      H1665   1.082       .  S
N1666      C1670   1.353       .  A
N1666      N1667   1.319       .  A
N1667      C1668   1.339       .  A
C1668      C1669   1.385       .  A
C1668      H1671   1.081       .  S
C1669      C1706   1.488   1_556  S
C1669      C1670   1.390       .  A
C1670      H1672   1.082       .  S
N1673      C1677   1.340       .  A
N1673      N1674   1.317       .  A
N1673     Cu1681   2.057       .  S
N1674      C1675   1.352       .  A
N1674     Cu1680   2.087       .  S
C1675      C1676   1.391       .  A
C1675      H1678   1.082       .  S
C1676      C1698   1.490       .  S
C1676      C1677   1.388       .  A
C1677      H1679   1.080       .  S
Cu1680     N1683   2.091       .  S
Cu1681     N1691   2.057       .  S
Cu1682     N1684   2.106       .  S
Cu1682     N1690   2.103       .  S
N1683      C1687   1.344       .  A
N1683      N1684   1.328       .  A
N1684      C1685   1.351       .  A
C1685      C1686   1.386       .  A
C1685      H1688   1.082       .  S
C1686      C1687   1.381       .  A
C1687      H1689   1.082       .  S
N1690      C1694   1.357       .  A
N1690      N1691   1.321       .  A
N1691      C1692   1.336       .  A
C1692      C1693   1.376       .  A
C1692      H1695   1.082       .  S
C1693      C1702   1.478       .  S
C1693      C1694   1.394       .  A
C1694      H1696   1.082       .  S
C1697      C1698   1.346       .  D
C1697      H1699   1.083       .  S
C1698      H1700   1.085       .  S
C1701      C2310   1.344       .  D
C1701      H2311   1.085       .  S
H1704      C2310   1.085       .  S
C1705      C1706   1.344       .  D
C1705      H1707   1.086       .  S
C1706      H1708   1.085       .  S
C1709      C1710   1.346       .  D
C1709      H1711   1.083       .  S
C1710      H1712   1.085       .  S
C1713      C1714   1.350       .  D
C1713      H1715   1.085       .  S
C1714      H1716   1.088       .  S
C1717      C1718   1.343       .  D
C1717      H1719   1.089       .  S
H1720      C2326   1.085       .  S
C1721      C1722   1.348       .  D
C1721      H1723   1.086       .  S
C1722      H1724   1.086       .  S
C1725      C1726   1.350       .  D
C1725      H1727   1.085       .  S
C1726      H1728   1.086       .  S
C1729      C1730   1.350       .  D
C1729      H1731   1.086       .  S
C1730      H1732   1.085       .  S
C1733      C1734   1.346       .  D
C1733      H1735   1.086       .  S
C1734      H1736   1.087       .  S
C1737      C1738   1.344       .  D
C1737      H1739   1.087       .  S
C1738      C2175   1.487       .  S
C1738      H1740   1.085       .  S
C1741      C1742   1.351       .  D
C1741      H1743   1.085       .  S
C1742      H1744   1.086       .  S
C1745      C1746   1.342       .  D
C1745      H1747   1.085       .  S
C1746      H1748   1.082       .  S
C1749      C1750   1.344   1_556  D
C1749      H1751   1.085   1_556  S
C1750      H1752   1.084   1_554  S
C1753      C1754   1.342       .  D
C1753      H1755   1.086       .  S
C1754      H1756   1.085       .  S
C1757      C1758   1.343       .  D
C1757      H1759   1.085       .  S
C1758      H1760   1.085       .  S
C1761      C1762   1.346       .  D
C1761      H1763   1.085       .  S
C1762      H1764   1.086       .  S
C1765      C1766   1.352       .  D
C1765      H1767   1.086       .  S
C1766      H1768   1.085       .  S
C1769      C1770   1.349       .  D
C1769      H1771   1.085       .  S
C1770      H1772   1.086       .  S
C1773      C1774   1.348       .  D
C1773      H1775   1.086       .  S
C1774      H2384   1.085       .  S
C1777      C1778   1.344   1_565  D
C1777      H1779   1.085   1_565  S
C1778      H1780   1.086       .  S
C1781      C1782   1.343       .  D
C1781      H1783   1.085       .  S
C1782      H1784   1.085       .  S
C1785      C1786   1.344       .  D
C1785      H1787   1.086       .  S
C1786      H1788   1.085       .  S
C1789      C1790   1.344       .  D
C1789      H1791   1.085       .  S
C1790      H1792   1.086       .  S
C1793      C1794   1.345       .  D
C1793      H1795   1.085       .  S
C1794      H1796   1.085       .  S
C1797      C1798   1.346       .  D
C1797      H1799   1.085       .  S
C1798      H1800   1.086       .  S
C1801      C1802   1.342       .  D
C1801      H1803   1.085       .  S
C1802      H1804   1.086       .  S
C1805      C1806   1.345       .  D
C1805      H1807   1.085       .  S
C1806      H1808   1.084       .  S
C1809      C1810   1.345       .  D
C1809      H1811   1.085       .  S
C1810      H1812   1.089       .  S
C1813      C1814   1.345       .  D
C1813      H1815   1.088       .  S
C1814      H1816   1.086       .  S
C1817      C1845   1.498       .  S
C1817      C1818   1.347       .  D
C1817      H1819   1.085       .  S
C1818      H1820   1.087       .  S
C1821      C1822   1.349       .  D
C1821      H1823   1.085       .  S
C1822      H1824   1.088       .  S
C1825      N1826   1.368       .  A
C1825      N1830   1.372       .  A
C1825      C1910   1.475       .  S
N1826      C1827   1.353       .  A
C1827      N1828   1.351       .  A
C1827      C2429   1.488       .  S
N1828      C1829   1.350       .  A
C1829      N1830   1.365       .  A
C1829      C2426   1.478       .  S
C1831      N1832   1.363       .  A
C1831      N1836   1.372       .  A
C1831      C2126   1.468       .  S
N1832      C1833   1.347       .  A
C1833      N1834   1.346       .  A
C1833      C2422   1.473       .  S
N1834      C1835   1.347       .  A
C1835      N1836   1.365       .  A
C1835      C2430   1.471       .  S
C1837      N1838   1.363       .  A
C1837      N1842   1.374       .  A
C1837      C2270   1.475       .  S
N1838      C1839   1.352       .  A
C1839      N1840   1.344       .  A
C1839      C2421   1.454       .  S
N1840      C1841   1.345       .  A
C1841      N1842   1.367       .  A
C1841      C2417   1.472       .  S
C1843      N1844   1.366       .  A
C1843      N1848   1.362       .  A
N1844      C1845   1.360       .  A
C1845      N1846   1.361       .  A
N1846      C1847   1.360       .  A
C1847      N1848   1.354       .  A
C1847      C2418   1.487       .  S
N1849      C1853   1.336       .  A
N1849      N1850   1.320       .  A
N1849     Cu1857   2.042       .  S
N1850      C1851   1.354       .  A
N1850     Cu1856   2.094       .  S
C1851      C1852   1.393       .  A
C1851      H1854   1.081       .  S
C1852      C2413   1.474       .  S
C1852      C1853   1.374       .  A
C1853      H1855   1.082       .  S
Cu1856     N1859   2.098       .  S
Cu1857     N1867   2.043       .  S
Cu1858     N1860   2.111       .  S
Cu1858     N1866   2.106       .  S
N1859      C1863   1.351       .  A
N1859      N1860   1.329       .  A
N1860      C1861   1.346       .  A
C1861      C1862   1.386       .  A
C1861      H1864   1.082       .  S
C1862      C2161   1.480       .  S
C1862      C1863   1.384       .  A
C1863      H1865   1.082       .  S
N1866      C2478   1.356       .  A
N1866      N1867   1.318       .  A
N1867      C1868   1.337       .  A
C1868      C2477   1.382       .  A
C1868      H1871   1.081       .  S
C1869      C2409   1.495       .  S
C1869      C1870   1.393       .  A
C1870      H1872   1.082       .  S
N1873      C1877   1.341       .  A
N1873      N1874   1.319       .  A
N1873     Cu1881   2.066       .  S
N1874      C1875   1.349       .  A
N1874     Cu1880   2.075       .  S
C1875      C1876   1.386       .  A
C1875      H1878   1.082       .  S
C1876      C2414   1.485       .  S
C1876      C1877   1.388       .  A
C1877      H1879   1.081       .  S
Cu1880     N1883   2.077       .  S
Cu1881     N1891   2.066       .  S
Cu1882     N1884   2.127       .  S
Cu1882     N1890   2.124       .  S
N1883      C1887   1.347       .  A
N1883      N1884   1.327       .  A
N1884      C1885   1.352       .  A
C1885      C1886   1.392       .  A
C1885      H1888   1.082       .  S
C1886      C2185   1.484       .  S
C1886      C1887   1.380       .  A
C1887      H1889   1.082       .  S
N1890      C1894   1.357       .  A
N1890      N1891   1.322       .  A
N1891      C1892   1.341       .  A
C1892      C1893   1.385       .  A
C1892      H1895   1.081       .  S
C1893      C2405   1.497       .  S
C1893      C1894   1.395       .  A
C1894      H1896   1.081       .  S
N1897      C1901   1.341       .  A
N1897      N1898   1.317       .  A
N1897     Cu1905   2.061       .  S
N1898      C1899   1.349       .  A
N1898     Cu1904   2.071       .  S
C1899      C1900   1.387       .  A
C1899      H1902   1.082       .  S
C1900      C2401   1.483       .  S
C1900      C1901   1.386       .  A
C1901      H1903   1.081       .  S
Cu1904     N1907   2.073       .  S
Cu1905     N1915   2.060       .  S
Cu1906     N1908   2.109       .  S
Cu1906     N1914   2.107       .  S
N1907      C1911   1.339       .  A
N1907      N1908   1.326       .  A
N1908      C1909   1.354       .  A
C1909      C1910   1.389       .  A
C1909      H1912   1.082       .  S
C1910      C1911   1.378       .  A
C1911      H1913   1.082       .  S
N1914      C2526   1.356       .  A
N1914      N1915   1.323       .  A
N1915      C1916   1.337       .  A
C1916      C2525   1.376       .  A
C1916      H1919   1.082       .  S
C1917      C2410   1.484       .  S
C1917      C1918   1.397       .  A
C1918      H1920   1.081       .  S
N1921      C1925   1.339       .  A
N1921      N1922   1.320       .  A
N1921     Cu1929   2.055       .  S
N1922      C1923   1.353       .  A
N1922     Cu1928   2.090       .  S
C1923      C1924   1.391       .  A
C1923      H1926   1.082       .  S
C1924      C2402   1.475       .  S
C1924      C1925   1.377       .  A
C1925      H1927   1.082       .  S
Cu1928     N1931   2.095       .  S
Cu1929     N1939   2.054       .  S
Cu1930     N1932   2.119       .  S
Cu1930     N1938   2.116       .  S
N1931      C1935   1.348       .  A
N1931      N1932   1.328       .  A
N1932      C1933   1.350       .  A
C1933      C1934   1.388       .  A
C1933      H1936   1.082       .  S
C1934      C2047   1.483       .  S
C1934      C1935   1.383       .  A
C1935      H1937   1.082       .  S
N1938      C1942   1.359       .  A
N1938      N1939   1.320       .  A
N1939      C1940   1.338       .  A
C1940      C1941   1.378       .  A
C1940      H1943   1.082       .  S
C1941      C2406   1.486       .  S
C1941      C1942   1.397       .  A
C1942      H1944   1.081       .  S
N1945      C1949   1.338       .  A
N1945      N1946   1.318       .  A
N1945     Cu1953   2.056       .  S
N1946      C1947   1.350       .  A
N1946     Cu1952   2.071       .  S
C1947      C1948   1.387       .  A
C1947      H1950   1.082       .  S
C1948      C3006   1.481   1_565  S
C1948      C1949   1.385       .  A
C1949      H1951   1.081       .  S
Cu1952     N1955   2.074       .  S
Cu1953     N1963   2.055       .  S
Cu1954     N1956   2.107       .  S
Cu1954     N1962   2.104       .  S
N1955      C1959   1.345       .  A
N1955      N1956   1.327       .  A
N1956      C1957   1.347       .  A
C1957      C1958   1.386       .  A
C1957      H1960   1.082       .  S
C1958      C2781   1.472       .  S
C1958      C1959   1.378       .  A
C1959      H1961   1.082       .  S
N1962      C1966   1.356       .  A
N1962      N1963   1.321       .  A
N1963      C1964   1.338       .  A
C1964      C1965   1.377       .  A
C1964      H1967   1.082       .  S
C1965      C2393   1.480       .  S
C1965      C1966   1.394       .  A
C1966      H1968   1.081       .  S
N1969      C1973   1.337       .  A
N1969      N1970   1.320       .  A
N1969     Cu1977   2.052       .  S
N1970      C1971   1.352       .  A
N1970     Cu1976   2.082       .  S
C1971      C1972   1.390       .  A
C1971      H1974   1.082       .  S
C1972      C2397   1.472       .  S
C1972      C1973   1.376       .  A
C1973      H1975   1.082       .  S
Cu1976     N1979   2.085       .  S
Cu1977     N1987   2.051       .  S
Cu1978     N1980   2.097       .  S
Cu1978     N1986   2.093       .  S
N1979      C1983   1.347       .  A
N1979      N1980   1.328       .  A
N1980      C1981   1.345       .  A
C1981      C1982   1.383       .  A
C1981      H1984   1.082       .  S
C1982      C2197   1.471       .  S
C1982      C1983   1.381       .  A
C1983      H1985   1.082       .  S
N1986      C1990   1.353       .  A
N1986      N1987   1.318       .  A
N1987      C1988   1.338       .  A
C1988      C1989   1.384       .  A
C1988      H1991   1.081       .  S
C1989      C2389   1.488       .  S
C1989      C1990   1.392       .  A
C1990      H1992   1.082       .  S
N1993      C2605   1.342       .  A
N1993      N1994   1.321       .  A
N1993     Cu2001   2.073       .  S
N1994      C2603   1.351       .  A
N1994     Cu2000   2.087       .  S
C1995      C1996   1.393       .  A
C1995      H1998   1.082       .  S
C1996      C2385   1.473   1_565  S
C1996      C1997   1.375       .  A
C1997      H1999   1.082       .  S
Cu2000     N2003   2.089       .  S
Cu2001     N2011   2.073       .  S
Cu2002     N2004   2.090       .  S
Cu2002     N2010   2.088       .  S
N2003      C2007   1.347       .  A
N2003      N2004   1.326       .  A
N2004      C2005   1.346       .  A
C2005      C2006   1.383       .  A
C2005      H2008   1.082       .  S
C2006      C2451   1.474       .  S
C2006      C2007   1.383       .  A
C2007      H2009   1.082       .  S
N2010      C2014   1.352       .  A
N2010      N2011   1.321       .  A
N2011      C2012   1.341       .  A
C2012      C2013   1.387       .  A
C2012      H2015   1.081       .  S
C2013      C2394   1.489       .  S
C2013      C2014   1.389       .  A
C2014      H2016   1.082       .  S
N2017      C2021   1.338       .  A
N2017      N2018   1.319       .  A
N2017     Cu2025   2.060       .  S
N2018      C2019   1.352       .  A
N2018     Cu2024   2.082       .  S
C2019      C2020   1.390       .  A
C2019      H2022   1.082       .  S
C2020      C2386   1.488       .  S
C2020      C2021   1.386       .  A
C2021      H2023   1.081       .  S
Cu2024     N2027   2.085       .  S
Cu2025     N2035   2.060       .  S
Cu2026     N2028   2.092       .  S
Cu2026     N2034   2.089       .  S
N2027      C2031   1.346       .  A
N2027      N2028   1.327       .  A
N2028      C2029   1.346       .  A
C2029      C2030   1.382       .  A
C2029      H2032   1.082       .  S
C2030      C2059   1.470       .  S
C2030      C2031   1.381       .  A
C2031      H2033   1.082       .  S
N2034      C2038   1.354       .  A
N2034      N2035   1.320       .  A
N2035      C2036   1.339       .  A
C2036      C2037   1.378       .  A
C2036      H2039   1.082       .  S
C2037      C2390   1.477       .  S
C2037      C2038   1.391       .  A
C2038      H2040   1.081       .  S
C2041      N2650   1.366       .  A
C2041      N2046   1.368       .  A
C2041      C2758   1.471       .  S
N2042      C2043   1.355       .  A
C2043      N2044   1.351       .  A
C2043      C2377   1.486       .  S
C2045      N2652   1.353       .  A
C2045      N2046   1.360       .  A
C2045      C2381   1.476       .  S
C2047      N2048   1.369       .  A
C2047      N2052   1.373       .  A
N2048      C2049   1.359       .  A
C2049      N2050   1.346       .  A
C2049      C2373   1.470       .  S
N2050      C2051   1.351       .  A
C2051      N2052   1.364       .  A
C2051      C2382   1.496       .  S
C2053      N2054   1.371       .  A
C2053      N2058   1.367       .  A
C2053      C2294   1.476       .  S
N2054      C2055   1.362       .  A
C2055      N2056   1.350       .  A
C2055      C2369   1.492       .  S
N2056      C2057   1.346       .  A
C2057      N2058   1.357       .  A
C2057      C2378   1.466       .  S
C2059      N2060   1.366       .  A
C2059      N2064   1.367       .  A
N2060      C2061   1.357       .  A
C2061      N2062   1.355       .  A
C2061      C2374   1.489       .  S
N2062      C2063   1.352       .  A
C2063      N2064   1.358       .  A
C2063      C2370   1.473       .  S
N2065      C2069   1.335       .  A
N2065      N2066   1.318       .  A
N2065     Cu2073   2.045       .  S
N2066      C2067   1.351       .  A
N2066     Cu2072   2.074       .  S
C2067      C2068   1.388       .  A
C2067      H2070   1.082       .  S
C2068      C2365   1.478       .  S
C2068      C2069   1.382       .  A
C2069      H2071   1.081       .  S
Cu2072     N2075   2.078       .  S
Cu2073     N2083   2.045       .  S
Cu2074     N2076   2.094       .  S
Cu2074     N2082   2.089       .  S
N2075      C2079   1.345       .  A
N2075      N2076   1.328       .  A
N2076      C2077   1.345       .  A
C2077      C2078   1.382       .  A
C2077      H2080   1.082       .  S
C2078      C2167   1.467       .  S
C2078      C2079   1.379       .  A
C2079      H2081   1.082       .  S
N2082      C2086   1.354       .  A
N2082      N2083   1.319       .  A
N2083      C2084   1.336       .  A
C2084      C2085   1.375       .  A
C2084      H2087   1.082       .  S
C2085      C2361   1.473       .  S
C2085      C2086   1.392       .  A
C2086      H2088   1.082       .  S
N2089      C2093   1.337       .  A
N2089      N2090   1.319       .  A
N2089     Cu2705   2.046       .  S
N2090      C2091   1.349       .  A
N2090     Cu2096   2.071       .  S
C2091      C2092   1.387       .  A
C2091      H2094   1.082       .  S
C2092      C2366   1.466       .  S
C2092      C2093   1.376       .  A
C2093      H2095   1.082       .  S
Cu2096     N2707   2.074       .  S
Cu2097     N2107   2.050       .  S
Cu2098     N2100   2.105       .  S
Cu2098     N2106   2.102       .  S
N2099      C2103   1.348       .  A
N2099      N2100   1.329       .  A
N2100      C2101   1.348       .  A
C2101      C2102   1.384       .  A
C2101      H2104   1.082       .  S
C2102      C2103   1.384       .  A
H2105      C2711   1.082       .  S
N2106      C2110   1.355       .  A
N2106      N2107   1.319       .  A
N2107      C2108   1.338       .  A
C2108      C2109   1.378       .  A
C2108      H2111   1.082       .  S
C2109      C2358   1.481       .  S
C2109      C2110   1.395       .  A
C2110      H2112   1.081       .  S
N2113      C2117   1.335       .  A
N2113      N2114   1.322       .  A
N2113     Cu2121   2.052       .  S
N2114      C2115   1.354       .  A
N2114     Cu2120   2.088       .  S
C2115      C2116   1.390       .  A
C2115      H2118   1.081       .  S
C2116      C2354   1.471       .  S
C2116      C2117   1.374       .  A
C2117      H2119   1.082       .  S
Cu2120     N2123   2.090       .  S
Cu2121     N2131   2.053       .  S
Cu2122     N2124   2.078       .  S
Cu2122     N2130   2.074       .  S
N2123      C2127   1.352       .  A
N2123      N2124   1.327       .  A
N2124      C2125   1.337       .  A
C2125      C2126   1.378       .  A
C2125      H2128   1.082       .  S
C2126      C2127   1.384       .  A
C2127      H2129   1.082       .  S
N2130      C2134   1.351       .  A
N2130      N2131   1.316       .  A
N2131      C2132   1.338       .  A
C2132      C2133   1.386       .  A
C2132      H2135   1.081       .  S
C2133      C2362   1.483   1_556  S
C2133      C2134   1.389       .  A
C2134      H2136   1.082       .  S
N2137      N2138   1.319       .  A
N2137     Cu2145   2.064       .  S
N2138     Cu2144   2.079       .  S
C2139      N2746   1.352       .  A
C2139      C2140   1.389       .  A
C2139      H2142   1.082       .  S
C2140      C2353   1.486       .  S
C2140      C2141   1.386       .  A
C2141      N2745   1.337       .  A
C2141      H2143   1.080       .  S
Cu2144     N2147   2.082       .  S
Cu2145     N2155   2.064       .  S
Cu2146     N2148   2.103       .  S
Cu2146     N2154   2.099       .  S
N2147      C2151   1.348       .  A
N2147      N2148   1.327       .  A
N2148      C2149   1.346       .  A
C2149      C2150   1.386       .  A
C2149      H2152   1.082       .  S
C2150      C2151   1.381       .  A
C2151      H2153   1.082       .  S
N2154      C2158   1.353       .  A
N2154      N2155   1.320       .  A
N2155      C2156   1.342       .  A
C2156      C2157   1.387       .  A
C2156      H2159   1.081       .  S
C2157      C2357   1.491       .  S
C2157      C2158   1.392       .  A
C2158      H2160   1.082       .  S
C2161      N2162   1.375       .  A
C2161      N2166   1.365       .  A
N2162      C2163   1.368       .  A
C2163      N2164   1.349       .  A
C2163      C2349   1.498       .  S
N2164      C2165   1.344       .  A
C2165      N2166   1.353       .  A
C2165      C2345   1.461       .  S
C2167      N2168   1.364       .  A
C2167      N2172   1.367       .  A
N2168      C2169   1.355       .  A
C2169      N2170   1.358       .  A
C2169      C2341   1.492       .  S
N2170      C2171   1.355       .  A
C2171      N2172   1.358       .  A
C2171      C2350   1.479       .  S
C2173      N2178   1.368       .  A
N2174      C2781   1.365       .  A
N2174      C2783   1.355       .  A
C2175      N2176   1.354       .  A
N2176      C2177   1.351       .  A
C2177      N2178   1.359       .  A
C2177      C2337   1.472       .  S
C2179      N2180   1.372       .  A
C2179      N2184   1.372       .  A
C2179      C2222   1.485       .  S
N2180      C2181   1.360       .  A
C2181      N2182   1.348       .  A
C2181      C2338   1.494       .  S
N2182      C2183   1.346       .  A
C2183      N2184   1.364       .  A
C2183      C2342   1.473       .  S
C2185      N2186   1.366       .  A
C2185      N2190   1.376       .  A
N2186      C2187   1.357       .  A
C2187      N2188   1.346       .  A
C2187      C2329   1.467       .  S
N2188      C2189   1.351       .  A
C2189      N2190   1.366       .  A
C2189      C2333   1.500       .  S
C2191      N2192   1.371       .  A
C2191      N2196   1.363       .  A
C2191      C2710   1.471       .  S
N2192      C2193   1.362       .  A
C2193      N2194   1.354       .  A
C2193      C2334   1.480       .  S
N2194      C2195   1.355       .  A
C2195      N2196   1.352       .  A
C2195      C2934   1.482       .  S
C2197      N2198   1.365       .  A
C2197      N2202   1.369       .  A
N2198      C2199   1.355       .  A
C2199      N2200   1.352       .  A
C2199      C2330   1.486       .  S
N2200      C2201   1.350       .  A
C2201      N2202   1.361       .  A
C2201      C2322   1.473       .  S
C2203      N2204   1.370       .  A
C2203      N2208   1.369       .  A
C2203      C2246   1.475       .  S
N2204      C2205   1.360       .  A
C2205      N2206   1.348       .  A
C2205      C2325   1.475       .  S
N2206      C2207   1.352       .  A
C2207      N2208   1.358       .  A
C2207      C2321   1.489       .  S
N2209      C2213   1.339       .  A
N2209      N2210   1.317       .  A
N2209     Cu2217   2.055       .  S
N2210      C2211   1.352       .  A
N2210     Cu2216   2.090       .  S
C2211      C2212   1.392       .  A
C2211      H2214   1.082       .  S
C2212      C2318   1.490   1_565  S
C2212      C2213   1.387       .  A
C2213      H2215   1.080       .  S
Cu2216     N2219   2.093       .  S
Cu2217     N2227   2.055       .  S
Cu2218     N2220   2.127       .  S
Cu2218     N2226   2.124       .  S
N2219      C2223   1.345       .  A
N2219      N2220   1.329       .  A
N2220      C2221   1.355       .  A
C2221      C2222   1.391       .  A
C2221      H2224   1.082       .  S
C2222      C2223   1.382       .  A
C2223      H2225   1.082       .  S
N2226      C2230   1.360       .  A
N2226      N2227   1.322       .  A
N2227      C2228   1.337       .  A
C2228      C2229   1.376       .  A
C2228      H2231   1.082       .  S
C2229      C2313   1.485       .  S
C2229      C2230   1.398       .  A
C2230      H2232   1.081       .  S
N2233      C2237   1.338       .  A
N2233      N2234   1.320       .  A
N2233     Cu2241   2.056       .  S
N2234      C2235   1.355       .  A
N2234     Cu2240   2.095       .  S
C2235      C2236   1.393       .  A
C2235      H2238   1.081       .  S
C2236      C2317   1.478       .  S
C2236      C2237   1.377       .  A
C2237      H2239   1.082       .  S
Cu2240     N2243   2.099       .  S
Cu2242     N2244   2.092       .  S
N2243      C2247   1.347       .  A
N2243      N2244   1.328       .  A
N2244      C2245   1.347       .  A
C2245      C2246   1.382       .  A
C2245      H2248   1.082       .  S
C2246      C2247   1.384       .  A
C2247      H2249   1.082       .  S
N2250      C2254   1.352       .  A
N2250      N2251   1.320       .  A
N2250     Cu2850   2.089       .  S
N2251      C2252   1.339       .  A
N2251     Cu2849   2.057       .  S
C2252      C2253   1.383       .  A
C2252      H2255   1.082       .  S
C2253      C2309   1.483       .  S
C2253      C2254   1.389       .  A
C2254      H2256   1.082       .  S
N2257      C2261   1.340       .  A
N2257      N2258   1.320       .  A
N2257     Cu2265   2.071       .  S
N2258      C2259   1.351       .  A
N2258     Cu2264   2.080       .  S
C2259      C2260   1.387       .  A
C2259      H2262   1.082       .  S
C2260      C2305   1.487   1_565  S
C2260      C2261   1.387       .  A
C2261      H2263   1.081       .  S
Cu2264     N2267   2.082       .  S
Cu2265     N2275   2.072       .  S
Cu2266     N2268   2.104       .  S
Cu2266     N2274   2.102       .  S
N2267      C2271   1.349       .  A
N2267      N2268   1.327       .  A
N2268      C2269   1.345       .  A
C2269      C2270   1.386       .  A
C2269      H2272   1.082       .  S
C2270      C2271   1.381       .  A
C2271      H2273   1.082       .  S
N2274      C2278   1.354       .  A
N2274      N2275   1.320       .  A
N2275      C2276   1.342       .  A
C2276      C2277   1.388       .  A
C2276      H2279   1.081       .  S
C2277      C2314   1.496       .  S
C2277      C2278   1.392       .  A
C2278      H2280   1.082       .  S
N2281      C2285   1.335       .  A
N2281      N2282   1.318       .  A
N2281     Cu2289   2.040       .  S
N2282      C2283   1.355       .  A
N2282     Cu2288   2.094       .  S
C2283      C2284   1.394       .  A
C2283      H2286   1.081       .  S
C2284      C2306   1.475       .  S
C2284      C2285   1.374       .  A
C2285      H2287   1.082       .  S
Cu2288     N2291   2.098       .  S
Cu2289     N2299   2.040       .  S
Cu2290     N2292   2.106       .  S
Cu2290     N2298   2.099       .  S
N2291      C2295   1.347       .  A
N2291      N2292   1.330       .  A
N2292      C2293   1.348       .  A
C2293      C2294   1.384       .  A
C2293      H2296   1.082       .  S
C2294      C2295   1.382       .  A
C2295      H2297   1.082       .  S
N2298      C2302   1.357       .  A
N2298      N2299   1.319       .  A
N2299      C2300   1.335       .  A
C2300      C2301   1.374       .  A
C2300      H2303   1.082       .  S
C2301      C2310   1.475   1_556  S
C2301      C2302   1.395       .  A
C2302      H2304   1.082       .  S
C2305      C2306   1.343       .  D
C2305      H2307   1.085       .  S
C2306      H2308   1.084       .  S
C2309      C2918   1.344   1_554  D
C2309      H2919   1.085       .  S
H2312      C2918   1.086   1_554  S
C2313      C2314   1.347   1_554  D
C2313      H2315   1.085       .  S
C2314      H2316   1.085   1_556  S
C2317      C2318   1.346       .  D
C2317      H2319   1.084       .  S
C2318      H2320   1.085       .  S
C2321      C2322   1.345       .  D
C2321      H2323   1.085       .  S
C2322      H2324   1.088       .  S
C2325      C2326   1.347       .  D
C2325      H2327   1.088       .  S
H2328      C2934   1.086       .  S
C2329      C2330   1.344       .  D
C2329      H2331   1.087       .  S
C2330      H2332   1.086       .  S
C2333      C2334   1.356       .  D
C2333      H2335   1.085       .  S
C2334      H2336   1.086       .  S
C2337      C2338   1.352       .  D
C2337      H2339   1.086       .  S
C2338      H2340   1.085       .  S
C2341      C2342   1.343       .  D
C2341      H2343   1.085       .  S
C2342      H2344   1.086       .  S
C2345      C2346   1.344       .  D
C2345      H2347   1.087       .  S
C2346      C2783   1.483       .  S
C2346      H2348   1.086       .  S
C2349      C2350   1.358       .  D
C2349      H2351   1.085       .  S
C2350      H2352   1.086       .  S
C2353      C2354   1.343       .  D
C2353      H2355   1.086       .  S
C2354      H2356   1.083       .  S
C2357      C2358   1.346   1_556  D
C2357      H2359   1.085   1_556  S
C2358      H2360   1.085       .  S
C2361      C2362   1.343       .  D
C2361      H2363   1.086       .  S
C2362      H2364   1.085       .  S
C2365      C2366   1.342       .  D
C2365      H2367   1.085       .  S
C2366      H2368   1.086       .  S
C2369      C2370   1.352       .  D
C2369      H2371   1.085       .  S
C2370      H2372   1.087       .  S
C2373      C2374   1.345       .  D
C2373      H2375   1.086       .  S
C2374      H2376   1.086       .  S
C2377      C2378   1.345       .  D
C2377      H2379   1.085       .  S
C2378      H2380   1.086       .  S
C2381      C2382   1.353       .  D
C2381      H2383   1.086       .  S
C2382      H2992   1.085       .  S
C2385      C2386   1.344       .  D
C2385      H2387   1.084       .  S
C2386      H2388   1.085       .  S
C2389      C2390   1.346       .  D
C2389      H2391   1.085       .  S
C2390      H2392   1.084       .  S
C2393      C2394   1.345       .  D
C2393      H2395   1.085       .  S
C2394      H2396   1.085       .  S
C2397      C2398   1.344       .  D
C2397      H2399   1.086       .  S
C2398      H2400   1.085       .  S
C2401      C2402   1.343       .  D
C2401      H2403   1.085       .  S
C2402      H2404   1.086       .  S
C2405      C2406   1.349       .  D
C2405      H2407   1.085       .  S
C2406      H2408   1.085       .  S
C2409      C2410   1.348       .  D
C2409      H2411   1.085       .  S
C2410      H2412   1.085       .  S
C2413      C2414   1.342       .  D
C2413      H2415   1.084       .  S
C2414      H2416   1.086       .  S
C2417      C2418   1.340       .  D
C2417      H2419   1.088       .  S
C2418      H2420   1.086       .  S
C2421      C2422   1.338       .  D
C2421      H2423   1.087       .  S
C2422      H2424   1.086       .  S
C2425      C2453   1.494       .  S
C2425      C2426   1.346       .  D
C2425      H2427   1.085       .  S
C2426      H2428   1.087       .  S
C2429      C2430   1.342       .  D
C2429      H2431   1.085       .  S
C2430      H2432   1.088       .  S
C2433      N2434   1.371       .  A
C2433      N2438   1.368       .  A
C2433      C2518   1.476       .  S
N2434      C2435   1.359       .  A
C2435      N2436   1.348       .  A
C2435      C3037   1.473       .  S
N2436      C2437   1.347       .  A
C2437      N2438   1.360       .  A
C2437      C3034   1.467   1_655  S
C2439      N2440   1.366       .  A
C2439      N2444   1.371       .  A
C2439      C2734   1.476       .  S
N2440      C2441   1.357       .  A
C2441      N2442   1.346       .  A
C2441      C3030   1.467       .  S
N2442      C2443   1.352       .  A
C2443      N2444   1.362       .  A
C2443      C3038   1.495       .  S
C2445      N2446   1.365       .  A
C2445      N2450   1.373       .  A
C2445      C2878   1.478       .  S
N2446      C2447   1.352       .  A
C2447      N2448   1.349       .  A
C2447      C3029   1.479       .  S
N2448      C2449   1.351       .  A
C2449      N2450   1.367       .  A
C2449      C3025   1.479       .  S
C2451      N2452   1.366       .  A
C2451      N2456   1.368       .  A
N2452      C2453   1.357       .  A
C2453      N2454   1.355       .  A
N2454      C2455   1.356       .  A
C2455      N2456   1.359       .  A
C2455      C3026   1.495       .  S
N2457      C2461   1.336       .  A
N2457      N2458   1.321       .  A
N2457     Cu2465   2.052       .  S
N2458      C2459   1.357       .  A
N2458     Cu2464   2.107       .  S
C2459      C2460   1.395       .  A
C2459      H2462   1.082       .  S
C2460      C3021   1.478       .  S
C2460      C2461   1.374       .  A
C2461      H2463   1.082       .  S
Cu2464     N2467   2.111       .  S
Cu2465     N2475   2.054       .  S
Cu2466     N2468   2.092       .  S
Cu2466     N2474   2.089       .  S
N2467      C2471   1.351       .  A
N2467      N2468   1.328       .  A
N2468      C2469   1.346       .  A
C2469      C2470   1.382       .  A
C2469      H2472   1.082   1_655  S
C2470      C2769   1.479   1_655  S
C2470      C2471   1.387       .  A
C2471      H2473   1.082       .  S
N2474      N2475   1.318       .  A
N2475      C2476   1.340       .  A
C2476      H2479   1.081       .  S
C2477      C3017   1.490       .  S
C2477      C2478   1.395       .  A
C2478      H2480   1.082       .  S
N2481      C2485   1.340       .  A
N2481      N2482   1.320       .  A
N2481     Cu2489   2.070       .  S
N2482      C2483   1.351       .  A
N2482     Cu2488   2.084       .  S
C2483      C2484   1.389       .  A
C2483      H2486   1.082       .  S
C2484      C3022   1.490       .  S
C2484      C2485   1.388       .  A
C2485      H2487   1.081       .  S
Cu2488     N2491   2.086       .  S
Cu2489     N2499   2.070       .  S
Cu2490     N2492   2.099       .  S
Cu2490     N2498   2.097       .  S
N2491      C2495   1.347       .  A
N2491      N2492   1.326       .  A
N2492      C2493   1.348       .  A
C2493      C2494   1.385       .  A
C2493      H2496   1.082       .  S
C2494      C2793   1.476       .  S
C2494      C2495   1.382       .  A
C2495      H2497   1.082       .  S
N2498      C2502   1.353       .  A
N2498      N2499   1.321       .  A
N2499      C2500   1.342       .  A
C2500      C2501   1.386       .  A
C2500      H2503   1.081       .  S
C2501      C3013   1.491       .  S
C2501      C2502   1.390       .  A
C2502      H2504   1.082       .  S
N2505      C2509   1.339       .  A
N2505      N2506   1.318       .  A
N2505     Cu2513   2.054   1_655  S
N2506      C2507   1.350       .  A
N2506     Cu2512   2.076       .  S
C2507      C2508   1.388       .  A
C2507      H2510   1.082       .  S
C2508      C3009   1.482       .  S
C2508      C2509   1.385       .  A
C2509      H2511   1.081       .  S
Cu2512     N2515   2.079       .  S
Cu2513     N2523   2.052       .  S
Cu2514     N2516   2.115       .  S
Cu2514     N2522   2.111   1_655  S
N2515      C2519   1.344       .  A
N2515      N2516   1.327       .  A
N2516      C2517   1.351       .  A
C2517      C2518   1.389       .  A
C2517      H2520   1.082       .  S
C2518      C2519   1.378       .  A
C2519      H2521   1.082       .  S
N2522      N2523   1.321       .  A
N2523      C2524   1.337       .  A
C2524      H2527   1.082       .  S
C2525      C3018   1.479       .  S
C2525      C2526   1.393       .  A
C2526      H2528   1.081       .  S
N2529      C2533   1.338       .  A
N2529      N2530   1.319       .  A
N2529     Cu2537   2.048       .  S
N2530      C2531   1.353       .  A
N2530     Cu2536   2.088       .  S
C2531      C2532   1.391       .  A
C2531      H2534   1.082       .  S
C2532      C3010   1.473       .  S
C2532      C2533   1.376       .  A
C2533      H2535   1.082       .  S
Cu2536     N2539   2.092       .  S
Cu2537     N2547   2.046       .  S
Cu2538     N2540   2.117       .  S
Cu2538     N2546   2.113       .  S
N2539      C2543   1.347       .  A
N2539      N2540   1.328       .  A
N2540      C2541   1.351       .  A
C2541      C2542   1.388       .  A
C2541      H2544   1.082       .  S
C2542      C2655   1.481       .  S
C2542      C2543   1.382       .  A
C2543      H2545   1.082       .  S
N2546      C2550   1.358       .  A
N2546      N2547   1.320       .  A
N2547      C2548   1.337       .  A
C2548      C2549   1.376       .  A
C2548      H2551   1.082       .  S
C2549      C3014   1.481       .  S
C2549      C2550   1.397       .  A
C2550      H2552   1.081       .  S
N2553      C2557   1.337       .  A
N2553      N2554   1.318       .  A
N2553     Cu2561   2.054       .  S
N2554      C2555   1.352   1_655  A
N2554     Cu2560   2.080   1_655  S
C2555      C2556   1.389   1_455  A
C2555      H2558   1.082       .  S
C2556      C2557   1.385       .  A
C2557      H2559   1.081       .  S
Cu2560     N2563   2.085       .  S
Cu2561     N2571   2.054       .  S
Cu2562     N2564   2.113   1_655  S
Cu2562     N2570   2.110       .  S
N2563      C2567   1.345       .  A
N2563      N2564   1.328       .  A
N2564      C2565   1.350       .  A
C2565      C2566   1.388       .  A
C2565      H2568   1.082       .  S
C2566      C2567   1.380       .  A
C2567      H2569   1.082       .  S
N2570      C2574   1.357       .  A
N2570      N2571   1.321       .  A
N2571      C2572   1.338       .  A
C2572      C2573   1.376       .  A
C2572      H2575   1.082       .  S
C2573      C3001   1.481       .  S
C2573      C2574   1.395       .  A
C2574      H2576   1.081       .  S
N2577      C2581   1.336       .  A
N2577      N2578   1.316       .  A
N2577     Cu2585   2.035       .  S
N2578      C2579   1.352       .  A
N2578     Cu2584   2.079       .  S
C2579      C2580   1.391       .  A
C2579      H2582   1.081       .  S
C2580      C3005   1.469       .  S
C2580      C2581   1.375       .  A
C2581      H2583   1.082       .  S
Cu2584     N2587   2.084       .  S
Cu2585     N2595   2.034       .  S
Cu2586     N2588   2.106       .  S
Cu2586     N2594   2.101       .  S
N2587      C2591   1.340       .  A
N2587      N2588   1.329       .  A
N2588      C2589   1.352       .  A
C2589      C2590   1.386       .  A
C2589      H2592   1.082       .  S
C2590      C2805   1.473       .  S
C2590      C2591   1.379       .  A
C2591      H2593   1.082       .  S
N2594      C2598   1.356       .  A
N2594      N2595   1.320       .  A
N2595      C2596   1.332       .  A
C2596      C2597   1.369       .  A
C2596      H2599   1.082       .  S
C2597      C2997   1.469       .  S
C2597      C2598   1.393       .  A
C2598      H2600   1.082       .  S
N2601      N2602   1.322       .  A
N2601     Cu2609   2.067       .  S
N2602     Cu2608   2.085       .  S
C2603      C2604   1.388       .  A
C2603      H2606   1.082       .  S
C2604      C2993   1.489   1_565  S
C2604      C2605   1.387       .  A
C2605      H2607   1.081       .  S
Cu2608     N2611   2.087       .  S
Cu2609     N2619   2.067       .  S
Cu2610     N2612   2.089       .  S
Cu2610     N2618   2.087       .  S
N2611      C2615   1.350       .  A
N2611      N2612   1.326       .  A
N2612      C2613   1.343       .  A
C2613      C2614   1.383       .  A
C2613      H2616   1.082       .  S
C2614      C2615   1.384       .  A
C2615      H2617   1.082       .  S
N2618      C2622   1.351   1_455  A
N2618      N2619   1.319       .  A
N2619      C2620   1.342   1_455  A
C2620      C2621   1.388       .  A
C2620      H2623   1.081       .  S
C2621      C3002   1.490       .  S
C2621      C2622   1.389       .  A
C2622      H2624   1.082       .  S
N2625      C2629   1.339       .  A
N2625      N2626   1.322       .  A
N2625     Cu2633   2.062       .  S
N2626      C2627   1.356       .  A
N2626     Cu2632   2.105       .  S
C2627      C2628   1.394       .  A
C2627      H2630   1.082       .  S
C2628      C2994   1.480       .  S
C2628      C2629   1.376       .  A
C2629      H2631   1.082       .  S
Cu2632     N2635   2.108       .  S
Cu2633     N2643   2.062       .  S
Cu2634     N2636   2.065       .  S
Cu2634     N2642   2.062       .  S
N2635      C2639   1.352       .  A
N2635      N2636   1.326       .  A
N2636      C2637   1.340       .  A
C2637      C2638   1.376       .  A
C2637      H2640   1.082       .  S
C2638      C2667   1.471       .  S
C2638      C2639   1.388       .  A
C2639      H2641   1.082       .  S
N2642      C2646   1.349       .  A
N2642      N2643   1.317       .  A
N2643      C2644   1.338       .  A
C2644      C2645   1.389       .  A
C2644      H2647   1.081       .  S
C2645      C2998   1.484       .  S
C2645      C2646   1.386       .  A
C2646      H2648   1.082       .  S
C2649      N2654   1.372       .  A
N2650      C2651   1.355       .  A
C2651      N2652   1.355       .  A
C2651      C2985   1.490       .  S
C2653      N2654   1.364       .  A
C2653      C2989   1.479       .  S
C2655      N2656   1.368       .  A
C2655      N2660   1.372       .  A
N2656      C2657   1.359       .  A
C2657      N2658   1.348       .  A
C2657      C2981   1.471       .  S
N2658      C2659   1.352       .  A
C2659      N2660   1.363       .  A
C2659      C2990   1.498       .  S
C2661      N2662   1.368       .  A
C2661      N2666   1.371       .  A
C2661      C2902   1.476       .  S
N2662      C2663   1.357       .  A
C2663      N2664   1.350       .  A
C2663      C2977   1.486       .  S
N2664      C2665   1.346       .  A
C2665      N2666   1.362       .  A
C2665      C2986   1.471       .  S
C2667      N2668   1.368       .  A
C2667      N2672   1.365       .  A
N2668      C2669   1.357       .  A
C2669      N2670   1.352       .  A
C2669      C2982   1.489       .  S
N2670      C2671   1.351       .  A
C2671      N2672   1.359       .  A
C2671      C2978   1.466       .  S
N2673      C2677   1.339       .  A
N2673      N2674   1.319       .  A
N2673     Cu2681   2.059       .  S
N2674      C2675   1.354       .  A
N2674     Cu2680   2.095       .  S
C2675      C2676   1.391       .  A
C2675      H2678   1.082       .  S
C2676      C2973   1.489       .  S
C2676      C2677   1.385       .  A
C2677      H2679   1.081       .  S
Cu2680     N2683   2.099       .  S
Cu2681     N2691   2.058       .  S
Cu2682     N2684   2.113       .  S
Cu2682     N2690   2.109       .  S
N2683      C2687   1.348       .  A
N2683      N2684   1.328       .  A
N2684      C2685   1.350       .  A
C2685      C2686   1.386       .  A
C2685      H2688   1.082       .  S
C2686      C2775   1.481       .  S
C2686      C2687   1.384       .  A
C2687      H2689   1.082       .  S
N2690      C2694   1.358       .  A
N2690      N2691   1.321       .  A
N2691      C2692   1.338       .  A
C2692      C2693   1.377       .  A
C2692      H2695   1.082       .  S
C2693      C2969   1.483       .  S
C2693      C2694   1.396       .  A
C2694      H2696   1.081       .  S
N2697      C2701   1.338       .  A
N2697      N2698   1.321       .  A
N2698      C2699   1.356       .  A
N2698     Cu2704   2.103       .  S
C2699      C2700   1.394       .  A
C2699      H2702   1.082   1_455  S
C2700      C2974   1.479       .  S
C2700      C2701   1.376       .  A
C2701      H2703   1.082       .  S
Cu2705     N2715   2.044       .  S
Cu2706     N2708   2.098       .  S
Cu2706     N2714   2.093       .  S
N2707      C2711   1.347       .  A
N2707      N2708   1.327       .  A
N2708      C2709   1.345       .  A
C2709      C2710   1.384       .  A
C2709      H2712   1.082       .  S
C2710      C2711   1.379       .  A
N2714      C2718   1.353       .  A
N2714      N2715   1.320       .  A
N2715      C2716   1.336       .  A
C2716      C2717   1.374       .  A
C2716      H2719   1.082       .  S
C2717      C2966   1.472       .  S
C2717      C2718   1.392       .  A
C2718      H2720   1.081       .  S
N2721      C2725   1.341       .  A
N2721      N2722   1.320       .  A
N2721     Cu2729   2.072       .  S
N2722      C2723   1.350       .  A
N2722     Cu2728   2.076       .  S
C2723      C2724   1.386       .  A
C2723      H2726   1.082       .  S
C2724      C2962   1.486       .  S
C2724      C2725   1.388       .  A
C2725      H2727   1.081       .  S
Cu2728     N2731   2.078       .  S
Cu2729     N2739   2.073       .  S
Cu2730     N2732   2.104       .  S
Cu2730     N2738   2.103       .  S
N2731      C2735   1.346       .  A
N2731      N2732   1.326       .  A
N2732      C2733   1.349       .  A
C2733      C2734   1.387       .  A
C2733      H2736   1.082       .  S
C2734      C2735   1.381       .  A
C2735      H2737   1.082       .  S
N2738      C2742   1.354       .  A
N2738      N2739   1.322       .  A
N2739      C2740   1.342       .  A
C2740      C2741   1.387       .  A
C2740      H2743   1.081       .  S
C2741      C2970   1.493   1_556  S
C2741      C2742   1.391       .  A
C2742      H2744   1.082       .  S
N2745      N2746   1.320       .  A
N2745     Cu2753   2.056       .  S
N2746     Cu2752   2.087       .  S
C2747      C2748   1.393   1_655  A
C2747      H2750   1.082       .  S
C2748      C2961   1.475       .  S
C2748      C2749   1.374       .  A
C2749      H2751   1.082       .  S
Cu2752     N2755   2.090       .  S
Cu2753     N2763   2.057       .  S
Cu2754     N2756   2.080       .  S
Cu2754     N2762   2.077       .  S
N2755      C2759   1.349       .  A
N2755      N2756   1.326       .  A
N2756      C2757   1.343       .  A
C2757      C2758   1.381       .  A
C2757      H2760   1.082       .  S
C2758      C2759   1.384       .  A
C2759      H2761   1.082       .  S
N2762      C2766   1.350       .  A
N2762      N2763   1.318       .  A
N2763      C2764   1.339       .  A
C2764      C2765   1.386       .  A
C2764      H2767   1.081       .  S
C2765      C2965   1.483       .  S
C2765      C2766   1.387       .  A
C2766      H2768   1.082       .  S
C2769      N2770   1.369       .  A
C2769      N2774   1.370       .  A
N2770      C2771   1.361       .  A
C2771      N2772   1.353       .  A
C2771      C2957   1.493       .  S
N2772      C2773   1.350       .  A
C2773      N2774   1.360       .  A
C2773      C2953   1.475       .  S
C2775      N2776   1.371       .  A
C2775      N2780   1.369       .  A
N2776      C2777   1.362       .  A
C2777      N2778   1.354       .  A
C2777      C2949   1.497       .  S
N2778      C2779   1.349       .  A
C2779      N2780   1.359       .  A
C2779      C2958   1.475   1_655  S
C2781      N2786   1.372       .  A
C2783      N2784   1.351       .  A
N2784      C2785   1.347       .  A
C2785      N2786   1.361       .  A
C2785      C2945   1.474       .  S
C2787      N2788   1.369       .  A
C2787      N2792   1.372       .  A
C2787      C2830   1.480       .  S
N2788      C2789   1.358       .  A
C2789      N2790   1.353       .  A
C2789      C2946   1.494       .  S
N2790      C2791   1.351       .  A
C2791      N2792   1.363       .  A
C2791      C2950   1.478       .  S
C2793      N2794   1.363       .  A
C2793      N2798   1.366       .  A
N2794      C2795   1.357       .  A
C2795      N2796   1.359       .  A
C2795      C2937   1.490       .  S
N2796      C2797   1.359       .  A
C2797      N2798   1.360       .  A
C2797      C2941   1.496       .  S
C2799      N2800   1.373       .  A
C2799      N2804   1.365       .  A
N2800      C2801   1.367       .  A
C2801      N2802   1.350       .  A
C2801      C2942   1.481       .  S
N2802      C2803   1.352       .  A
C2803      N2804   1.352       .  A
C2805      N2806   1.370       .  A
C2805      N2810   1.364       .  A
N2806      C2807   1.365       .  A
C2807      N2808   1.351       .  A
C2807      C2938   1.480       .  S
N2808      C2809   1.353       .  A
C2809      N2810   1.351       .  A
C2809      C2930   1.481       .  S
C2811      N2812   1.371       .  A
C2811      N2816   1.369       .  A
C2811      C2854   1.477       .  S
N2812      C2813   1.362       .  A
C2813      N2814   1.343       .  A
C2813      C2933   1.466       .  S
N2814      C2815   1.342       .  A
C2815      N2816   1.358       .  A
C2815      C2929   1.463       .  S
N2817      C2821   1.338       .  A
N2817      N2818   1.318       .  A
N2817     Cu2825   2.049       .  S
N2818      C2819   1.353       .  A
N2818     Cu2824   2.097       .  S
C2819      C2820   1.393       .  A
C2819      H2822   1.082       .  S
C2820      C2926   1.490   1_565  S
C2820      C2821   1.385       .  A
C2821      H2823   1.081       .  S
Cu2824     N2827   2.102       .  S
Cu2825     N2835   2.049       .  S
Cu2826     N2828   2.109       .  S
Cu2826     N2834   2.105       .  S
N2827      C2831   1.346       .  A
N2827      N2828   1.329       .  A
N2828      C2829   1.351       .  A
C2829      C2830   1.386       .  A
C2829      H2832   1.082       .  S
C2830      C2831   1.384       .  A
C2831      H2833   1.082       .  S
N2834      C2838   1.357       .  A
N2834      N2835   1.320       .  A
N2835      C2836   1.336       .  A
C2836      C2837   1.375       .  A
C2836      H2839   1.082       .  S
C2837      C2921   1.478       .  S
C2837      C2838   1.395       .  A
C2838      H2840   1.082       .  S
N2841      C2845   1.339       .  A
N2841      N2842   1.320       .  A
N2841     Cu2849   2.057       .  S
N2842      C2843   1.354       .  A
N2842     Cu2848   2.094       .  S
C2843      C2844   1.392       .  A
C2843      H2846   1.081       .  S
C2844      C2925   1.478       .  S
C2844      C2845   1.378       .  A
C2845      H2847   1.082       .  S
Cu2848     N2851   2.098       .  S
Cu2850     N2852   2.092       .  S
N2851      C2855   1.346       .  A
N2851      N2852   1.327       .  A
N2852      C2853   1.348       .  A
C2853      C2854   1.384       .  A
C2853      H2856   1.082       .  S
C2854      C2855   1.384       .  A
C2855      H2857   1.082       .  S
N2858      C2862   1.354   1_655  A
N2858      N2859   1.320       .  A
N2859      C2860   1.338       .  A
C2860      C2861   1.382   1_655  A
C2860      H2863   1.082       .  S
C2861      C2917   1.485       .  S
C2861      C2862   1.391       .  A
C2862      H2864   1.082       .  S
N2865      C2869   1.336       .  A
N2865      N2866   1.321       .  A
N2865     Cu2873   2.054       .  S
N2866      C2867   1.356       .  A
N2866     Cu2872   2.100       .  S
C2867      C2868   1.393       .  A
C2867      H2870   1.082       .  S
C2868      C2913   1.476       .  S
C2868      C2869   1.374       .  A
C2869      H2871   1.082       .  S
Cu2872     N2875   2.104       .  S
Cu2873     N2883   2.054       .  S
Cu2874     N2876   2.094       .  S
Cu2874     N2882   2.090       .  S
N2875      C2879   1.353       .  A
N2875      N2876   1.328       .  A
N2876      C2877   1.341       .  A
C2877      C2878   1.381       .  A
C2877      H2880   1.082       .  S
C2878      C2879   1.386       .  A
C2879      H2881   1.082       .  S
N2882      C2886   1.354       .  A
N2882      N2883   1.317       .  A
N2883      C2884   1.339       .  A
C2884      C2885   1.386       .  A
C2884      H2887   1.081       .  S
C2885      C2922   1.489   1_556  S
C2885      C2886   1.392       .  A
C2886      H2888   1.082       .  S
N2889      C2893   1.339       .  A
N2889      N2890   1.319       .  A
N2889     Cu2897   2.058       .  S
N2890      C2891   1.352       .  A
N2890     Cu2896   2.090       .  S
C2891      C2892   1.391       .  A
C2891      H2894   1.082       .  S
C2892      C2914   1.490       .  S
C2892      C2893   1.387       .  A
C2893      H2895   1.080       .  S
Cu2896     N2899   2.094       .  S
Cu2897     N2907   2.058       .  S
Cu2898     N2900   2.094       .  S
Cu2898     N2906   2.091       .  S
N2899      C2903   1.345       .  A
N2899      N2900   1.327       .  A
N2900      C2901   1.350       .  A
C2901      C2902   1.384       .  A
C2901      H2904   1.082       .  S
C2902      C2903   1.383       .  A
C2903      H2905   1.082       .  S
N2906      C2910   1.353       .  A
N2906      N2907   1.321       .  A
N2907      C2908   1.339       .  A
C2908      C2909   1.377       .  A
C2908      H2911   1.082       .  S
C2909      C2918   1.475       .  S
C2909      C2910   1.390       .  A
C2910      H2912   1.082       .  S
C2913      C2914   1.345   1_565  D
C2913      H2915   1.084   1_565  S
C2914      H2916   1.086       .  S
C2921      C2922   1.345       .  D
C2921      H2923   1.086       .  S
C2922      H2924   1.085       .  S
C2925      C2926   1.347       .  D
C2925      H2927   1.084       .  S
C2926      H2928   1.085       .  S
C2929      C2930   1.336       .  D
C2929      H2931   1.087       .  S
C2930      H2932   1.086       .  S
C2933      C2934   1.339       .  D
C2933      H2935   1.087       .  S
C2937      C2938   1.344       .  D
C2937      H2939   1.086       .  S
C2938      H2940   1.088       .  S
C2941      C2942   1.347       .  D
C2941      H2943   1.086       .  S
C2942      H2944   1.087       .  S
C2945      C2946   1.348       .  D
C2945      H2947   1.087       .  S
C2946      H2948   1.085       .  S
C2949      C2950   1.351       .  D
C2949      H2951   1.085       .  S
C2950      H2952   1.086   1_655  S
C2953      C2954   1.350       .  D
C2953      H2955   1.086       .  S
C2954      H2956   1.085       .  S
C2957      C2958   1.350       .  D
C2957      H2959   1.085   1_455  S
C2958      H2960   1.087       .  S
C2961      C2962   1.342   1_455  D
C2961      H2963   1.085       .  S
C2962      H2964   1.086       .  S
C2965      C2966   1.342   1_556  D
C2965      H2967   1.085   1_556  S
C2966      H2968   1.085       .  S
C2969      C2970   1.347       .  D
C2969      H2971   1.085       .  S
C2970      H2972   1.085       .  S
C2973      C2974   1.346   1_655  D
C2973      H2975   1.085       .  S
C2974      H2976   1.086       .  S
C2977      C2978   1.347       .  D
C2977      H2979   1.085       .  S
C2978      H2980   1.087       .  S
C2981      C2982   1.346       .  D
C2981      H2983   1.087       .  S
C2982      H2984   1.086       .  S
C2985      C2986   1.344       .  D
C2985      H2987   1.085       .  S
C2986      H2988   1.086       .  S
C2989      C2990   1.352       .  D
C2989      H2991   1.086       .  S
C2993      C2994   1.345       .  D
C2993      H2995   1.085       .  S
C2994      H2996   1.085       .  S
C2997      C2998   1.340       .  D
C2997      H2999   1.085       .  S
C2998      H3000   1.086       .  S
C3001      C3002   1.345       .  D
C3001      H3003   1.085       .  S
C3002      H3004   1.085       .  S
C3005      C3006   1.342       .  D
C3005      H3007   1.085       .  S
C3006      H3008   1.085       .  S
C3009      C3010   1.343       .  D
C3009      H3011   1.085       .  S
C3010      H3012   1.086       .  S
C3013      C3014   1.345       .  D
C3013      H3015   1.085       .  S
C3014      H3016   1.086       .  S
C3017      C3018   1.347       .  D
C3017      H3019   1.085       .  S
C3018      H3020   1.086       .  S
C3021      C3022   1.344       .  D
C3021      H3023   1.084       .  S
C3022      H3024   1.085       .  S
C3025      C3026   1.347       .  D
C3025      H3027   1.088       .  S
C3026      H3028   1.085       .  S
C3029      C3030   1.341       .  D
C3029      H3031   1.086       .  S
C3030      H3032   1.088       .  S
C3033      C3034   1.342       .  D
C3033      H3035   1.086   1_455  S
C3034      H3036   1.086       .  S
C3037      C3038   1.352       .  D
C3037      H3039   1.085       .  S
C3038      H3040   1.085       .  S
