geometry optimzed in LAMMPS
_audit_creation_date              2020-11-30 
_audit_creation_method            'lammps2cif' 
_symmetry_space_group_name_H-M    'P1' 
_symmetry_Int_Tables_number       1 
_symmetry_cell_setting            triclinic 
loop_ 
_symmetry_equiv_pos_as_xyz 
  x,y,z 
_cell_length_a                    28.732450682355417 
_cell_length_b                    28.82372888803763 
_cell_length_c                    28.94641856131158 
_cell_angle_alpha                 90.07913738878801 
_cell_angle_beta                  89.76378874861044 
_cell_angle_gamma                 90.13019421263957 
loop_ 
_atom_site_label 
_atom_site_type_symbol 
_atom_site_fract_x 
_atom_site_fract_y 
_atom_site_fract_z 
_atom_site_charge 
O1          O  0.29987483  0.54084978  0.21037367    -0.82940
C2          C  0.10791434  0.49303885  0.19515888     0.96420
O3          O  0.12823284  0.52923262  0.18194303    -0.72050
O4          O  0.17377892  0.57260282  0.25032508    -0.75650
Al5        Al  0.18968100  0.55188899  0.18830004     1.48980
C6          C  0.20266676  0.57532706  0.28327140     0.91670
O7          O  0.23091475  0.46150490  0.29179778    -0.81870
O8          O  0.25288423  0.42270017  0.16721308    -0.75420
Al9        Al  0.26195644  0.50053249  0.24836959     1.90120
O10         O  0.19853201  0.41203272  0.24410104    -0.74490
O11         O  0.18447274  0.46462477  0.12481831    -0.74340
O12         O  0.13132696  0.45771539  0.20529002    -0.80000
O13         O  0.20338377  0.53849960  0.12521649    -0.78210
O14         O  0.21521037  0.49878546  0.20796815    -1.14340
O15         O  0.24438903  0.58742428  0.18878597    -0.73540
C16         C  0.28680292  0.57954926  0.19440459     0.97180
C17         C  0.21123331  0.42310726  0.28415959     0.93580
Al18       Al  0.19353543  0.44435684  0.18716818     1.55560
O19         O  0.23882402  0.55091771  0.28277555    -0.78160
C20         C  0.19495178  0.50141614  0.10353164     0.97750
C21         C  0.28992959  0.42206570  0.19035015     0.92630
O22         O  0.29511319  0.44951984  0.22368031    -0.83480
O23         O  0.71102183  0.46552130  0.20548762    -0.82940
C24         C  0.90496632  0.49355458  0.19907630     0.96420
O25         O  0.88223957  0.46028656  0.18188955    -0.72050
O26         O  0.83172235  0.41923831  0.24935709    -0.75650
Al27       Al  0.81806103  0.44197080  0.18815529     1.48980
C28         C  0.80155638  0.41798226  0.28154746     0.91670
O29         O  0.78157718  0.53335661  0.29286707    -0.81870
O30         O  0.77031951  0.57463041  0.16521322    -0.75420
Al31       Al  0.74967940  0.49876967  0.24683429     1.90120
O32         O  0.81755948  0.58196677  0.24680630    -0.74490
O33         O  0.83979339  0.52651371  0.12859070    -0.74340
O34         O  0.88321529  0.52825152  0.21404431    -0.80000
O35         O  0.80488344  0.45930083  0.12573201    -0.78210
O36         O  0.79774772  0.49654880  0.20887408    -1.14340
O37         O  0.75940180  0.41041283  0.18950874    -0.73540
C38         C  0.71812107  0.42465416  0.19245875     0.97180
C39         C  0.80229050  0.57132589  0.28626948     0.93580
Al40       Al  0.82563535  0.54834712  0.19029833     1.55560
O41         O  0.76678322  0.44479519  0.28063564    -0.78160
C42         C  0.82226906  0.49392454  0.10501022     0.97750
C43         C  0.73213188  0.57798653  0.18661719     0.92630
O44         O  0.72322442  0.55263779  0.22091888    -0.83480
O45         O  0.47574188  0.77518117  0.29736081    -0.82940
C46         C  0.50380249  0.80638567  0.10652749     0.96420
O47         O  0.47110152  0.82326988  0.13073761    -0.72050
O48         O  0.42772272  0.75806785  0.17700412    -0.75650
Al49       Al  0.45412543  0.81514412  0.19510942     1.48980
C50         C  0.42866253  0.71962791  0.19753085     0.91670
O51         O  0.55009815  0.70489747  0.21425746    -0.81870
O52         O  0.58294045  0.83379057  0.24303503    -0.75420
Al53       Al  0.51208385  0.74447524  0.25211639     1.90120
O54         O  0.59669069  0.75804408  0.18857837    -0.74490
O55         O  0.53824642  0.87390616  0.17369447    -0.74340
O56         O  0.54026597  0.79276182  0.12642810    -0.80000
O57         O  0.47353248  0.87611254  0.21186824    -0.78210
O58         O  0.50839932  0.79019809  0.21112093    -1.14340
O59         O  0.42511789  0.81132172  0.25485587    -0.73540
C60         C  0.43774230  0.79621634  0.29366414     0.97180
C61         C  0.58875158  0.71607289  0.19682211     0.93580
Al62       Al  0.55998022  0.81254113  0.18526151     1.55560
O63         O  0.45860967  0.71121578  0.22849403    -0.78160
C64         C  0.50612079  0.89723677  0.19163920     0.97750
C65         C  0.58674838  0.80955535  0.27925111     0.92630
O66         O  0.56525647  0.77112702  0.28328812    -0.83480
O67         O  0.53693716  0.20616177  0.29624779    -0.82940
C68         C  0.50270713  0.18952157  0.10435082     0.96420
O69         O  0.53844220  0.17645155  0.12576812    -0.72050
O70         O  0.57583761  0.24637406  0.17254416    -0.75650
Al71       Al  0.55746367  0.18467062  0.18861330     1.48980
C72         C  0.57897073  0.27896741  0.20164305     0.91670
O73         O  0.46451588  0.28746859  0.21998237    -0.81870
O74         O  0.42736834  0.15955738  0.24421088    -0.75420
Al75       Al  0.50063888  0.24443409  0.25606746     1.90120
O76         O  0.41639049  0.23708681  0.19041679    -0.74490
O77         O  0.47331856  0.11967512  0.17674444    -0.74340
O78         O  0.46628650  0.20009500  0.12606520    -0.80000
O79         O  0.54462888  0.12159782  0.20336213    -0.78210
O80         O  0.50271029  0.20328807  0.21046046    -1.14340
O81         O  0.58989833  0.18864739  0.24572319    -0.73540
C82         C  0.57792065  0.19287677  0.28732285     0.97180
C83         C  0.42777253  0.27862966  0.19747332     0.93580
Al84       Al  0.45041153  0.18095980  0.18646135     1.55560
O85         O  0.55454547  0.27776477  0.23772327    -0.78160
C86         C  0.50915450  0.09894581  0.19087311     0.97750
C87         C  0.42346479  0.18346976  0.28038823     0.92630
O88         O  0.44673504  0.22010647  0.28562841    -0.83480
O89         O  0.55426177  0.28483961  0.78981602    -0.82940
C90         C  0.49934545  0.09764484  0.81654076     0.96420
O91         O  0.53632984  0.11665268  0.83000485    -0.72050
O92         O  0.58413741  0.15498414  0.76353360    -0.75650
Al93       Al  0.56193037  0.17665854  0.82171071     1.48980
C94         C  0.58911889  0.17886318  0.72746914     0.91670
O95         O  0.47739290  0.20838975  0.71142982    -0.81870
O96         O  0.43849620  0.24773831  0.83521860    -0.75420
Al97       Al  0.51546497  0.24407848  0.75289558     1.90120
O98         O  0.42352350  0.19091450  0.76112857    -0.74490
O99         O  0.47275171  0.17756231  0.88082359    -0.74340
O100        O  0.46473950  0.12152169  0.80422440    -0.80000
O101        O  0.54626986  0.19447367  0.88272476    -0.78210
O102        O  0.51085647  0.20210277  0.79769898    -1.14340
O103        O  0.59907565  0.23148933  0.81920944    -0.73540
C104        C  0.59081607  0.27369031  0.81163241     0.97180
C105        C  0.43609713  0.19553669  0.71976544     0.93580
Al106      Al  0.45489687  0.18562437  0.81857255     1.55560
O107        O  0.56811031  0.21693231  0.72295068    -0.78160
C108        C  0.50837488  0.18780249  0.90364341     0.97750
C109        C  0.43664613  0.28087506  0.80683892     0.92630
O110        O  0.46269410  0.28021268  0.77164892    -0.83480
O111        O  0.71066514  0.20621621  0.54545842    -0.82940
C112        C  0.90421694  0.19329786  0.50190346     0.96420
O113        O  0.88255627  0.17754242  0.53620887    -0.72050
O114        O  0.83494902  0.24301150  0.58268920    -0.75650
Al115      Al  0.82030429  0.18257470  0.55744427     1.48980
C116        C  0.80592359  0.27605716  0.58523070     0.91670
O117        O  0.78125157  0.29091023  0.46996749    -0.81870
O118        O  0.76047026  0.16524687  0.42800425    -0.75420
Al119      Al  0.74988025  0.24554626  0.50712188     1.90120
O120        O  0.81346417  0.24418979  0.41954868    -0.74490
O121        O  0.83240456  0.12346655  0.46951395    -0.74340
O122        O  0.88162055  0.20638819  0.46696260    -0.80000
O123        O  0.80628836  0.12082052  0.54007098    -0.78210
O124        O  0.79667892  0.20521087  0.50509698    -1.14340
O125        O  0.76511647  0.18076463  0.59070181    -0.73540
C126        C  0.72299263  0.18722210  0.58287580     0.97180
C127        C  0.80033580  0.28414937  0.43121409     0.93580
Al128      Al  0.82008721  0.18648406  0.45091387     1.55560
O129        O  0.77189432  0.27759661  0.55831977    -0.78160
C130        C  0.81923482  0.10007274  0.50403700     0.97750
C131        C  0.72324589  0.18880036  0.42795593     0.92630
O132        O  0.71874212  0.22208814  0.45550554    -0.83480
O133        O  0.30119293  0.20926637  0.46309788    -0.82940
C134        C  0.10815454  0.19057364  0.50689116     0.96420
O135        O  0.12961960  0.17899805  0.47095582    -0.72050
O136        O  0.17700990  0.24427980  0.42447357    -0.75650
Al137      Al  0.19124998  0.18324864  0.44951642     1.48980
C138        C  0.20603512  0.27739679  0.42218496     0.91670
O139        O  0.22523705  0.29044507  0.53686003    -0.81870
O140        O  0.25511586  0.16570919  0.57817150    -0.75420
Al141      Al  0.26043111  0.24725003  0.50109781     1.90120
O142        O  0.19918541  0.24278629  0.58918045    -0.74490
O143        O  0.18553096  0.12086486  0.53811161    -0.74340
O144        O  0.13086842  0.20024993  0.54304168    -0.80000
O145        O  0.20306852  0.12056843  0.46441908    -0.78210
O146        O  0.21533215  0.20475427  0.50251024    -1.14340
O147        O  0.24721292  0.18161037  0.41760677    -0.73540
C148        C  0.28914838  0.18991365  0.42553268     0.97180
C149        C  0.20836427  0.28377053  0.57656463     0.93580
Al150      Al  0.19428891  0.18416548  0.55710630     1.55560
O151        O  0.23937709  0.27866233  0.44963115    -0.78160
C152        C  0.19479555  0.09920039  0.50133569     0.97750
C153        C  0.29044362  0.19192977  0.57965642     0.92630
O154        O  0.29252378  0.22673711  0.55381433    -0.83480
O155        O  0.30098949  0.46591882  0.79826251    -0.82940
C156        C  0.10688027  0.49817055  0.81142167     0.96420
O157        O  0.12930658  0.46320457  0.82450339    -0.72050
O158        O  0.17735618  0.42707092  0.75460203    -0.75650
Al159      Al  0.19263196  0.44514452  0.81670986     1.48980
C160        C  0.20626479  0.42531031  0.72148724     0.91670
O161        O  0.23057066  0.53945324  0.71448320    -0.81870
O162        O  0.24576752  0.57722625  0.84166909    -0.75420
Al163      Al  0.26245736  0.50226770  0.75910391     1.90120
O164        O  0.19332125  0.58525419  0.76233334    -0.74490
O165        O  0.17955854  0.53010933  0.88044273    -0.74340
O166        O  0.12787429  0.53485740  0.80015674    -0.80000
O167        O  0.20567791  0.45866514  0.88060269    -0.78210
O168        O  0.21452424  0.50020011  0.79821804    -1.14340
O169        O  0.25055536  0.41201558  0.81263920    -0.73540
C170        C  0.29243627  0.42441074  0.80858433     0.97180
C171        C  0.20784114  0.57608379  0.72213657     0.93580
Al172      Al  0.18872101  0.55227480  0.81919659     1.55560
O173        O  0.24325614  0.44905742  0.72385232    -0.78160
C174        C  0.19320981  0.49491881  0.90239685     0.97750
C175        C  0.28457925  0.57943134  0.82152969     0.92630
O176        O  0.29225121  0.55511552  0.78605560    -0.83480
O177        O  0.28174112  0.76864139  0.56220705    -0.82940
C178        C  0.10571039  0.81212724  0.50132683     0.96420
O179        O  0.12594051  0.80029907  0.53805682    -0.72050
O180        O  0.18873357  0.75930207  0.58926673    -0.75650
Al181      Al  0.18745746  0.81605319  0.55480890     1.48980
C182        C  0.19640343  0.71725688  0.57951387     0.91670
O183        O  0.23308560  0.71500256  0.45136860    -0.81870
O184        O  0.25446947  0.80876186  0.41943535    -0.75420
Al185      Al  0.25236752  0.74669746  0.50660730     1.90120
O186        O  0.17414968  0.75480027  0.42492662    -0.74490
O187        O  0.21046820  0.87645878  0.46322288    -0.74340
O188        O  0.12916180  0.82408535  0.46603059    -0.80000
O189        O  0.18033458  0.87824961  0.53279567    -0.78210
O190        O  0.21090187  0.79223805  0.50296977    -1.14340
O191        O  0.24757917  0.83467179  0.57696450    -0.73540
C192        C  0.28153110  0.80753087  0.58259433     0.97180
C193        C  0.19942147  0.71911750  0.42369882     0.93580
Al194      Al  0.19350305  0.81429368  0.44813646     1.55560
O195        O  0.21191086  0.70668156  0.54012601    -0.78160
C196        C  0.19617516  0.89895726  0.49779151     0.97750
C197        C  0.29431696  0.79811791  0.43487499     0.92630
O198        O  0.29816563  0.78087412  0.47446763    -0.83480
O199        O  0.70845525  0.79223004  0.46244035    -0.82940
C200        C  0.90327266  0.80570809  0.50322320     0.96420
O201        O  0.88145798  0.81744205  0.46764767    -0.72050
O202        O  0.83290783  0.75049296  0.42489002    -0.75650
Al203      Al  0.81887934  0.81206471  0.44777450     1.48980
C204        C  0.80288158  0.71828768  0.42229580     0.91670
O205        O  0.77839331  0.70653497  0.53707384    -0.81870
O206        O  0.75939343  0.83082717  0.57970518    -0.75420
Al207      Al  0.74706270  0.75178159  0.50007387     1.90120
O208        O  0.81357752  0.75323165  0.58576478    -0.74490
O209        O  0.82862720  0.87384786  0.53506835    -0.74340
O210        O  0.88121097  0.79414373  0.53920086    -0.80000
O211        O  0.80620183  0.87479226  0.46345268    -0.78210
O212        O  0.79497744  0.79138471  0.50113698    -1.14340
O213        O  0.76292322  0.81333376  0.41466650    -0.73540
C214        C  0.72055028  0.81009130  0.42417245     0.97180
C215        C  0.79910406  0.71340224  0.57497677     0.93580
Al216      Al  0.81865565  0.81117829  0.55488116     1.55560
O217        O  0.76752900  0.71865135  0.44799326    -0.78160
C218        C  0.81727973  0.89646613  0.49959681     0.97750
C219        C  0.72223632  0.80717834  0.58107566     0.92630
O220        O  0.71623068  0.77490710  0.55268594    -0.83480
O221        O  0.54073624  0.78661392  0.71389334    -0.82940
C222        C  0.49637370  0.80778980  0.90469524     0.96420
O223        O  0.53385529  0.81853378  0.88462910    -0.72050
O224        O  0.57619408  0.75122114  0.83839639    -0.75650
Al225      Al  0.55574587  0.81283360  0.82266384     1.48980
C226        C  0.57935166  0.71753637  0.81061520     0.91670
O227        O  0.46314910  0.70789102  0.79094649    -0.81870
O228        O  0.42776087  0.83490406  0.75806657    -0.75420
Al229      Al  0.50173922  0.74990118  0.75462975     1.90120
O230        O  0.41478726  0.76040760  0.81620857    -0.74490
O231        O  0.46919860  0.87809526  0.82673744    -0.74340
O232        O  0.46004839  0.80080307  0.88148601    -0.80000
O233        O  0.54351305  0.87631271  0.80956890    -0.78210
O234        O  0.50187831  0.79327485  0.79871568    -1.14340
O235        O  0.58914347  0.81176703  0.76631495    -0.73540
C236        C  0.57972466  0.80469485  0.72455786     0.97180
C237        C  0.42474615  0.71848528  0.81017810     0.93580
Al238      Al  0.44791274  0.81660181  0.81884759     1.55560
O239        O  0.55482839  0.71747647  0.77492606    -0.78160
C240        C  0.50668087  0.89857886  0.81745802     0.97750
C241        C  0.42423896  0.80797348  0.72377825     0.92630
O242        O  0.44840748  0.77172433  0.72285075    -0.83480
O243        O  0.71265436  0.53146336  0.79883989    -0.82940
C244        C  0.90619755  0.49832300  0.80918271     0.96420
O245        O  0.88466338  0.53422361  0.82225638    -0.72050
O246        O  0.83411755  0.57618392  0.75605119    -0.75650
Al247      Al  0.82063095  0.55326905  0.81744932     1.48980
C248        C  0.80397004  0.57769824  0.72418721     0.91670
O249        O  0.78459364  0.46037666  0.71445137    -0.81870
O250        O  0.76669430  0.42075150  0.84102238    -0.75420
Al251      Al  0.75177587  0.49631382  0.75894129     1.90120
O252        O  0.81829491  0.41185139  0.76198584    -0.74490
O253        O  0.83549404  0.46733004  0.87992997    -0.74340
O254        O  0.88462290  0.46194822  0.79837282    -0.80000
O255        O  0.80788176  0.53788040  0.88063599    -0.78210
O256        O  0.79913930  0.49820943  0.79788101    -1.14340
O257        O  0.76217608  0.58519141  0.81662667    -0.73540
C258        C  0.72055180  0.57214546  0.81244335     0.97180
C259        C  0.80459242  0.42226330  0.72206756     0.93580
Al260      Al  0.82426950  0.44540134  0.81844376     1.55560
O261        O  0.77043947  0.54940528  0.72479097    -0.78160
C262        C  0.82115326  0.50220565  0.90220296     0.97750
C263        C  0.72938836  0.41725384  0.81849916     0.92630
O264        O  0.72228980  0.44286255  0.78414542    -0.83480
C265        C  0.68930676  0.64923402  0.84210515    -0.02990
C266        C  0.68140347  0.60610452  0.81944458     0.06690
C267        C  0.63744494  0.59856147  0.79827082    -0.03100
C268        C  0.60386848  0.63413596  0.79715354    -0.03100
C269        C  0.61283198  0.67820384  0.81755206     0.06830
C270        C  0.65599782  0.68519093  0.84004922    -0.03300
Br271      Br  0.67357221  0.74566806  0.86336530    -0.01850
Br272      Br  0.74585957  0.66087259  0.87665371    -0.01920
Br273      Br  0.54664235  0.62123162  0.76401807    -0.01880
Br274      Br  0.62214898  0.54106281  0.76648494    -0.01860
C275        C  0.76054573  0.65802060  0.62864824    -0.02990
C276        C  0.80207631  0.67604896  0.61004842     0.06690
C277        C  0.84487243  0.66438824  0.63073178    -0.03100
C278        C  0.84626249  0.63359483  0.66885117    -0.03100
C279        C  0.80462042  0.61358817  0.68639953     0.06830
C280        C  0.76159235  0.62824374  0.66704222    -0.03300
Br281      Br  0.70248496  0.61373936  0.69592988    -0.01850
Br282      Br  0.70101579  0.67719032  0.60412640    -0.01920
Br283      Br  0.90531997  0.62178511  0.69755159    -0.01880
Br284      Br  0.90180834  0.69039960  0.60610569    -0.01860
C285        C  0.63802535  0.80974802  0.60748415    -0.02990
C286        C  0.68600657  0.81433287  0.61769537     0.06690
C287        C  0.69897362  0.81974673  0.66446912    -0.03100
C288        C  0.66476244  0.81840180  0.69989297    -0.03100
C289        C  0.61647236  0.81487059  0.68869672     0.06830
C290        C  0.60422840  0.81643501  0.64185734    -0.03300
Br291      Br  0.54262597  0.83462644  0.62356028    -0.01850
Br292      Br  0.61612702  0.78532886  0.54981788    -0.01920
Br293      Br  0.68648757  0.82086383  0.76300869    -0.01880
Br294      Br  0.76413238  0.82132312  0.68130222    -0.01860
C295        C  0.02938552  0.79417085  0.46238748    -0.02510
C296        C  0.05393222  0.81268102  0.50034688     0.06690
C297        C  0.02862691  0.83158040  0.53792475    -0.03100
C298        C  0.97960645  0.82882243  0.53909313    -0.03100
C299        C  0.95512967  0.80750335  0.50247502     0.06830
C300        C  0.98038028  0.79200013  0.46323255    -0.03300
Br301      Br  0.94877929  0.76793963  0.40953805    -0.01850
Br302      Br  0.06225285  0.77088626  0.40884730    -0.01920
Br303      Br  0.94618227  0.85904297  0.58878195    -0.01880
Br304      Br  0.06055841  0.86553099  0.58603354    -0.01860
C305        C  0.31434642  0.84335619  0.65659441    -0.02990
C306        C  0.32091937  0.81883353  0.61463126     0.06690
C307        C  0.36501596  0.79942890  0.60561093    -0.03100
C308        C  0.39830849  0.79554313  0.64081487    -0.03100
C309        C  0.39070714  0.81656831  0.68477688     0.06830
C310        C  0.34908722  0.84251674  0.69133056    -0.03300
Br311      Br  0.33627463  0.87386463  0.74908993    -0.01850
Br312      Br  0.25756415  0.87751082  0.66785727    -0.01920
Br313      Br  0.45235198  0.75786667  0.62691479    -0.01880
Br314      Br  0.38181118  0.78063105  0.54354622    -0.01860
C315        C  0.98266730  0.50472881  0.76807401    -0.02990
C316        C  0.95741790  0.49777619  0.80923034     0.06690
C317        C  0.98114167  0.48742930  0.85038385    -0.03100
C318        C  0.02999503  0.48462781  0.85043621    -0.03100
C319        C  0.05551250  0.49619699  0.81023688     0.06830
C320        C  0.03164895  0.50541756  0.76882198    -0.03300
Br321      Br  0.06605514  0.51536380  0.71239255    -0.01850
Br322      Br  0.95018703  0.51130772  0.71051622    -0.01920
Br323      Br  0.06117775  0.46331105  0.90532599    -0.01880
Br324      Br  0.94661915  0.47634585  0.90667868    -0.01860
C325        C  0.30891590  0.66014004  0.84330710    -0.02990
C326        C  0.32064834  0.61335367  0.83649120     0.06690
C327        C  0.36805770  0.60133164  0.83600407    -0.03100
C328        C  0.40243930  0.63629210  0.83352080    -0.03100
C329        C  0.38945020  0.68276530  0.82489466     0.06830
C330        C  0.34178150  0.69487418  0.83252306    -0.03300
Br331      Br  0.31792835  0.75724689  0.82520032    -0.01850
Br332      Br  0.24864337  0.67682865  0.86831677    -0.01920
Br333      Br  0.46545042  0.62132751  0.84946060    -0.01880
Br334      Br  0.38528982  0.53744640  0.84436529    -0.01860
C335        C  0.20982313  0.69237107  0.66114506    -0.02990
C336        C  0.19326361  0.68140390  0.61648651     0.06690
C337        C  0.17930902  0.63516940  0.60698649    -0.03100
C338        C  0.18303133  0.60041669  0.64139602    -0.03100
C339        C  0.20155564  0.61140061  0.68516464     0.06830
C340        C  0.21502031  0.65747260  0.69429768    -0.03300
Br341      Br  0.24599313  0.67286248  0.75074234    -0.01850
Br342      Br  0.22906257  0.75452674  0.67807610    -0.01920
Br343      Br  0.16163916  0.53830517  0.62891787    -0.01880
Br344      Br  0.15328870  0.61953850  0.54763903    -0.01860
C345        C  0.15504404  0.02335408  0.48769068    -0.02990
C346        C  0.19519009  0.04799390  0.50104183     0.06690
C347        C  0.23604652  0.02367591  0.51250435    -0.03100
C348        C  0.23671896  0.97477225  0.51063064    -0.03100
C349        C  0.19652361  0.95015715  0.49733248     0.06830
C350        C  0.15565635  0.97450919  0.48598801    -0.03300
Br351      Br  0.10053119  0.94079196  0.46804682    -0.01850
Br352      Br  0.09914536  0.05676040  0.47211786    -0.01920
Br353      Br  0.29228006  0.94121133  0.52692686    -0.01880
Br354      Br  0.29093580  0.05758174  0.53069574    -0.01860
C355        C  0.16926309  0.32099607  0.64656388    -0.02990
C356        C  0.20187302  0.32371574  0.60967186     0.06690
C357        C  0.23016391  0.36403587  0.60646922    -0.03100
C358        C  0.22702534  0.39944225  0.64008643    -0.03100
C359        C  0.19943563  0.39344705  0.68056782     0.06830
C360        C  0.16896522  0.35457570  0.68237817    -0.03300
Br361      Br  0.12669577  0.34510823  0.73383559    -0.01850
Br362      Br  0.12315787  0.27209699  0.64821083    -0.01920
Br363      Br  0.25988972  0.45704755  0.62795543    -0.01880
Br364      Br  0.27691368  0.37104102  0.55845135    -0.01860
C365        C  0.81432753  0.02385224  0.46022776    -0.02990
C366        C  0.81932292  0.04807775  0.50257673     0.06690
C367        C  0.82373570  0.02204309  0.54383704    -0.03100
C368        C  0.81961151  0.97328062  0.54318876    -0.03100
C369        C  0.81757106  0.94871342  0.50052539     0.06830
C370        C  0.81630476  0.97492095  0.45889082    -0.03300
Br371      Br  0.81917616  0.94574673  0.39849071    -0.01850
Br372      Br  0.80201431  0.05646493  0.40310175    -0.01920
Br373      Br  0.81410504  0.94227461  0.60244865    -0.01880
Br374      Br  0.83865721  0.05181183  0.60212757    -0.01860
C375        C  0.98256161  0.19308610  0.46149664    -0.02990
C376        C  0.95636689  0.19446741  0.50298721     0.06690
C377        C  0.98062833  0.19330134  0.54578102    -0.03100
C378        C  0.02946051  0.18895282  0.54676386    -0.03100
C379        C  0.05590898  0.19202936  0.50555620     0.06830
C380        C  0.03163543  0.19414924  0.46264482    -0.03300
Br381      Br  0.06349862  0.19765147  0.40347974    -0.01850
Br382      Br  0.95244606  0.18551588  0.40199982    -0.01920
Br383      Br  0.05830470  0.17269186  0.60490660    -0.01880
Br384      Br  0.94879171  0.19828533  0.60477928    -0.01860
C385        C  0.84984250  0.33393365  0.63495862    -0.02990
C386        C  0.80775460  0.31267414  0.62131878     0.06690
C387        C  0.76510556  0.32864340  0.64067218    -0.03100
C388        C  0.76459841  0.36646861  0.67097937    -0.03100
C389        C  0.80658566  0.38672631  0.68551779     0.06830
C390        C  0.84928703  0.36959901  0.66849208    -0.03300
Br391      Br  0.90685860  0.39542942  0.69061962    -0.01850
Br392      Br  0.90770653  0.31728514  0.60553937    -0.01920
Br393      Br  0.70544030  0.38893958  0.69391857    -0.01880
Br394      Br  0.70601308  0.29827932  0.62857078    -0.01860
C395        C  0.50747109  0.97357470  0.77460487    -0.02990
C396        C  0.50658587  0.94947105  0.81686696     0.06690
C397        C  0.50145217  0.97384885  0.85870418    -0.03100
C398        C  0.49785483  0.02241744  0.85839214    -0.03100
C399        C  0.49775577  0.04664807  0.81614914     0.06830
C400        C  0.50277911  0.02220852  0.77424328    -0.03300
Br401      Br  0.50531512  0.05563170  0.71672057    -0.01850
Br402      Br  0.51451028  0.93970605  0.71745361    -0.01920
Br403      Br  0.49389600  0.05578777  0.91600632    -0.01880
Br404      Br  0.50045188  0.94055918  0.91655708    -0.01860
C405        C  0.41004623  0.36325420  0.79196444    -0.02990
C406        C  0.40179710  0.31927363  0.81238548     0.06690
C407        C  0.35780188  0.31085671  0.83327128    -0.03100
C408        C  0.32343002  0.34589454  0.83467668    -0.03100
C409        C  0.33105823  0.38939727  0.81266342     0.06830
C410        C  0.37474905  0.39717363  0.79063848    -0.03300
Br411      Br  0.38672030  0.45176660  0.75322833    -0.01850
Br412      Br  0.46958385  0.37836265  0.76397487    -0.01920
Br413      Br  0.26548594  0.33192300  0.86645290    -0.01880
Br414      Br  0.34116267  0.24977150  0.85609660    -0.01860
C415        C  0.37485125  0.20014320  0.60196575    -0.02990
C416        C  0.32920938  0.18496219  0.61327136     0.06690
C417        C  0.31995498  0.17010112  0.65881527    -0.03100
C418        C  0.35576450  0.16937229  0.69213333    -0.03100
C419        C  0.40077054  0.18825448  0.68193675     0.06830
C420        C  0.40953155  0.20379316  0.63613750    -0.03300
Br421      Br  0.46700798  0.23469741  0.61878544    -0.01850
Br422      Br  0.39096052  0.21784752  0.53940037    -0.01920
Br423      Br  0.34022081  0.14238418  0.75164981    -0.01880
Br424      Br  0.25679130  0.15616512  0.67821388    -0.01860
C425        C  0.64760471  0.39137020  0.83643603    -0.02990
C426        C  0.69483932  0.38042632  0.82909855     0.06690
C427        C  0.70807294  0.33351169  0.82746259    -0.03100
C428        C  0.67402594  0.29844839  0.82998302    -0.03100
C429        C  0.62611940  0.30966732  0.82596744     0.06830
C430        C  0.61325872  0.35619448  0.83447476    -0.03300
Br431      Br  0.55023554  0.37038256  0.85187457    -0.01850
Br432      Br  0.63077189  0.45399905  0.85215162    -0.01920
Br433      Br  0.69439273  0.23754373  0.84760949    -0.01880
Br434      Br  0.77237515  0.31646333  0.81784599    -0.01860
C435        C  0.64418670  0.15892388  0.61039571    -0.02990
C436        C  0.68950697  0.17483433  0.62028718     0.06690
C437        C  0.70326169  0.17772078  0.66743046    -0.03100
C438        C  0.67075502  0.16856084  0.70245036    -0.03100
C439        C  0.62341050  0.16546075  0.69182069     0.06830
C440        C  0.61024784  0.15783471  0.64569255    -0.03300
Br441      Br  0.54693090  0.14188461  0.63175258    -0.01850
Br442      Br  0.63102347  0.13101155  0.55164626    -0.01920
Br443      Br  0.69136458  0.15707079  0.76434857    -0.01880
Br444      Br  0.76466240  0.19771589  0.68678097    -0.01860
C445        C  0.53972201  0.21321328  0.02948492    -0.02990
C446        C  0.50311235  0.19105261  0.05331528     0.06690
C447        C  0.46668439  0.17027622  0.02830889    -0.03100
C448        C  0.46683161  0.17134495  0.97971841    -0.03100
C449        C  0.50547142  0.19078850  0.95521707     0.06830
C450        C  0.54140464  0.21281100  0.98089754    -0.03300
Br451      Br  0.59254322  0.24552058  0.95129248    -0.01850
Br452      Br  0.58664137  0.24692988  0.06322316    -0.01920
Br453      Br  0.41225390  0.14614778  0.94920930    -0.01880
Br454      Br  0.41735261  0.13745081  0.06054215    -0.01860
C455        C  0.34142040  0.18402131  0.30515153    -0.02990
C456        C  0.38759668  0.17237353  0.31497375     0.06690
C457        C  0.39964588  0.15793047  0.35971082    -0.03100
C458        C  0.36666600  0.16061967  0.39584750    -0.03100
C459        C  0.32244516  0.17995403  0.38747442     0.06830
C460        C  0.30900919  0.18893776  0.34103292    -0.03300
Br461      Br  0.24743422  0.21079055  0.32443824    -0.01850
Br462      Br  0.32269548  0.19451689  0.24225673    -0.01920
Br463      Br  0.38016513  0.13316675  0.45476066    -0.01880
Br464      Br  0.46021685  0.13179321  0.37012425    -0.01860
C465        C  0.60363459  0.19682670  0.37146802    -0.02990
C466        C  0.61353181  0.18503143  0.32477793     0.06690
C467        C  0.65965545  0.16969389  0.31369187    -0.03100
C468        C  0.69502449  0.16947011  0.34753871    -0.03100
C469        C  0.68485426  0.18115223  0.39385338     0.06830
C470        C  0.63850493  0.19393449  0.40547184    -0.03300
Br471      Br  0.62156960  0.21116157  0.46797349    -0.01850
Br472      Br  0.54357300  0.22095649  0.39085474    -0.01920
Br473      Br  0.75885229  0.15937462  0.32801500    -0.01880
Br474      Br  0.67772496  0.14980255  0.25204774    -0.01860
C475        C  0.54780127  0.97380233  0.17489902    -0.02990
C476        C  0.50693795  0.94906454  0.18862657     0.06690
C477        C  0.46641598  0.97478872  0.19945902    -0.03100
C478        C  0.46887373  0.02305152  0.20491287    -0.03100
C479        C  0.50924499  0.04756574  0.19134635     0.06830
C480        C  0.54800923  0.02273699  0.17458072    -0.03300
Br481      Br  0.60053447  0.05555304  0.14793318    -0.01850
Br482      Br  0.60398755  0.94296404  0.15406786    -0.01920
Br483      Br  0.41702475  0.05411043  0.23412979    -0.01880
Br484      Br  0.40520727  0.94664182  0.19954159    -0.01860
C485        C  0.45907480  0.81874085  0.03122531    -0.02990
C486        C  0.50013243  0.80398427  0.05467470     0.06690
C487        C  0.53803721  0.78716687  0.02751948    -0.03100
C488        C  0.53446947  0.78496092  0.97913498    -0.03100
C489        C  0.49576431  0.80386758  0.95605612     0.06830
C490        C  0.45784155  0.82035511  0.98243749    -0.03300
Br491      Br  0.40433907  0.84737448  0.95221243    -0.01850
Br492      Br  0.40275716  0.83654712  0.06377335    -0.01920
Br493      Br  0.58187671  0.75196661  0.94512875    -0.01880
Br494      Br  0.59697846  0.76746646  0.05383061    -0.01860
C495        C  0.66497158  0.83701895  0.30671163    -0.02990
C496        C  0.61870170  0.82429901  0.31672868     0.06690
C497        C  0.60477049  0.82221768  0.36337982    -0.03100
C498        C  0.63820149  0.82709392  0.39845781    -0.03100
C499        C  0.68593748  0.82389388  0.38780739     0.06830
C500        C  0.69936487  0.83195662  0.34090166    -0.03300
Br501      Br  0.76349059  0.83445684  0.32025209    -0.01850
Br502      Br  0.68088609  0.86527941  0.24823555    -0.01920
Br503      Br  0.61926822  0.85075963  0.45728088    -0.01880
Br504      Br  0.53986714  0.81700769  0.37954364    -0.01860
C505        C  0.39929690  0.76097259  0.36369005    -0.02990
C506        C  0.40613024  0.79990778  0.33462706     0.06690
C507        C  0.37997716  0.84054290  0.34316903    -0.03100
C508        C  0.34457159  0.84091461  0.37719133    -0.03100
C509        C  0.33641632  0.80137784  0.40471003     0.06830
C510        C  0.36587265  0.76226584  0.39942509    -0.03300
Br511      Br  0.35711939  0.70702170  0.43657673    -0.01850
Br512      Br  0.43128545  0.70300936  0.35197385    -0.01920
Br513      Br  0.30775026  0.89607918  0.38672845    -0.01880
Br514      Br  0.39376535  0.89659932  0.30987157    -0.01860
C515        C  0.81375422  0.45814848  0.97757370    -0.02990
C516        C  0.82071969  0.50072921  0.95403493     0.06690
C517        C  0.82871982  0.54121330  0.98058016    -0.03100
C518        C  0.82686601  0.53962805  0.02940932    -0.03100
C519        C  0.82259532  0.49643494  0.05297607     0.06830
C520        C  0.81826374  0.45556963  0.02598004    -0.03300
Br521      Br  0.82282299  0.39458556  0.05331328    -0.01850
Br522      Br  0.79461780  0.40261110  0.94506048    -0.01920
Br523      Br  0.82865071  0.59818660  0.06224711    -0.01880
Br524      Br  0.84542354  0.59909564  0.95091399    -0.01860
C525        C  0.84420534  0.34217290  0.38193575    -0.02990
C526        C  0.80191070  0.32156275  0.39621611     0.06690
C527        C  0.76074055  0.33204570  0.37242904    -0.03100
C528        C  0.76187056  0.36094519  0.33356918    -0.03100
C529        C  0.80359573  0.38334860  0.31981730     0.06830
C530        C  0.84493071  0.37396249  0.34452428    -0.03300
Br531      Br  0.90193362  0.40565719  0.32860358    -0.01850
Br532      Br  0.90059109  0.32752489  0.41461022    -0.01920
Br533      Br  0.70591853  0.36562090  0.29736235    -0.01880
Br534      Br  0.70196872  0.30591032  0.39198992    -0.01860
C535        C  0.68605101  0.34812397  0.16436080    -0.02990
C536        C  0.67843950  0.39156401  0.18614915     0.06690
C537        C  0.63576815  0.39886156  0.21002605    -0.03100
C538        C  0.60435172  0.36189850  0.21652944    -0.03100
C539        C  0.61237018  0.31815722  0.19514168     0.06830
C540        C  0.65425150  0.31138426  0.17019000    -0.03300
Br541      Br  0.67385433  0.24984301  0.15140988    -0.01850
Br542      Br  0.74005143  0.33736437  0.12577490    -0.01920
Br543      Br  0.55452722  0.37157153  0.26111658    -0.01880
Br544      Br  0.61983563  0.45802586  0.23816577    -0.01860
C545        C  0.65168059  0.60212212  0.16782511    -0.02990
C546        C  0.69824043  0.61450083  0.17561053     0.06690
C547        C  0.70954209  0.66072564  0.18579563    -0.03100
C548        C  0.67402966  0.69378996  0.19162377    -0.03100
C549        C  0.62629390  0.68099671  0.18747343     0.06830
C550        C  0.61574332  0.63450429  0.17525071    -0.03300
Br551      Br  0.55282525  0.61278109  0.17092567    -0.01850
Br552      Br  0.63788547  0.54020312  0.14640098    -0.01920
Br553      Br  0.69285330  0.75465502  0.21136276    -0.01880
Br554      Br  0.77380381  0.67778914  0.19666885    -0.01860
C555        C  0.84450020  0.61656543  0.34777503    -0.02990
C556        C  0.80343327  0.60644558  0.32328363     0.06690
C557        C  0.76296045  0.63238596  0.33185349    -0.03100
C558        C  0.76429483  0.67054599  0.36173185    -0.03100
C559        C  0.80516908  0.68093203  0.38698234     0.06830
C560        C  0.84478333  0.65252573  0.38110739    -0.03300
Br561      Br  0.89699177  0.65889863  0.42199745    -0.01850
Br562      Br  0.89931280  0.57963660  0.33698563    -0.01920
Br563      Br  0.70912658  0.70860965  0.36633747    -0.01880
Br564      Br  0.70459303  0.61557494  0.30348521    -0.01860
C565        C  0.03160522  0.53370152  0.20849837    -0.02990
C566        C  0.05622436  0.49252146  0.19785277     0.06690
C567        C  0.03100703  0.45168007  0.18763717    -0.03100
C568        C  0.98207044  0.45111744  0.19089072    -0.03100
C569        C  0.95708025  0.49283062  0.19974881     0.06830
C570        C  0.98271196  0.53449641  0.20717839    -0.03300
Br571      Br  0.95316354  0.59491046  0.21249489    -0.01850
Br572      Br  0.06376936  0.59028072  0.22596230    -0.01920
Br573      Br  0.95125026  0.39166901  0.18337291    -0.01880
Br574      Br  0.06252567  0.39685875  0.16465262    -0.01860
C575        C  0.16092150  0.52413190  0.97913800    -0.02990
C576        C  0.19427706  0.49726703  0.95417925     0.06690
C577        C  0.23009385  0.47492883  0.97927135    -0.03100
C578        C  0.23077148  0.47702607  0.02804870    -0.03100
C579        C  0.19575530  0.50108254  0.05237896     0.06830
C580        C  0.16106402  0.52467871  0.02785252    -0.03300
Br581      Br  0.11245231  0.55655772  0.06164159    -0.01850
Br582      Br  0.11497185  0.56211323  0.94850734    -0.01920
Br583      Br  0.28122589  0.44901454  0.06172863    -0.01880
Br584      Br  0.28142331  0.44546185  0.94744071    -0.01860
C585        C  0.40846981  0.36345032  0.18576184    -0.02990
C586        C  0.39548229  0.31650222  0.18214011     0.06690
C587        C  0.34968540  0.30652856  0.16683560    -0.03100
C588        C  0.31497139  0.34090745  0.16902640    -0.03100
C589        C  0.32682451  0.38705566  0.18104459     0.06830
C590        C  0.37435099  0.39833761  0.18750609    -0.03300
Br591      Br  0.39402451  0.46101792  0.20039535    -0.01850
Br592      Br  0.47262806  0.38092949  0.17829789    -0.01920
Br593      Br  0.25088523  0.32190219  0.16107690    -0.01880
Br594      Br  0.33484908  0.24888470  0.13585758    -0.01860
C595        C  0.24852791  0.33160346  0.36873568    -0.02990
C596        C  0.20523894  0.31443237  0.38610295     0.06690
C597        C  0.16347794  0.33480745  0.37029887    -0.03100
C598        C  0.16500922  0.37088126  0.33714171    -0.03100
C599        C  0.20816539  0.38805881  0.32115721     0.06830
C600        C  0.24969468  0.36845438  0.33725322    -0.03300
Br601      Br  0.30915858  0.39049548  0.31425709    -0.01850
Br602      Br  0.30808336  0.30461502  0.38520542    -0.01920
Br603      Br  0.10820018  0.39794715  0.31440138    -0.01880
Br604      Br  0.10442625  0.31618549  0.39598268    -0.01860
C605        C  0.39767329  0.64517930  0.16358242    -0.02990
C606        C  0.39055078  0.68626923  0.18882327     0.06690
C607        C  0.34542723  0.69678476  0.20470939    -0.03100
C608        C  0.30964544  0.66375231  0.20085202    -0.03100
C609        C  0.32029239  0.61804171  0.18586877     0.06830
C610        C  0.36322183  0.61021338  0.16354499    -0.03300
Br611      Br  0.37177961  0.55487275  0.12728372    -0.01850
Br612      Br  0.45044026  0.64074273  0.12315543    -0.01920
Br613      Br  0.24670607  0.68293841  0.21571902    -0.01880
Br614      Br  0.33220408  0.75653467  0.23192750    -0.01860
C615        C  0.23726042  0.64031384  0.32835368    -0.02990
C616        C  0.19866666  0.61102256  0.32037451     0.06690
C617        C  0.15836080  0.61705302  0.34809292    -0.03100
C618        C  0.15757761  0.65203504  0.38293496    -0.03100
C619        C  0.19460162  0.68426784  0.38602815     0.06830
C620        C  0.23199659  0.67994527  0.35523581    -0.03300
Br621      Br  0.27199077  0.73146783  0.34274362    -0.01850
Br622      Br  0.29988598  0.62551706  0.30854726    -0.01920
Br623      Br  0.10727840  0.65486603  0.42681726    -0.01880
Br624      Br  0.10756951  0.57381049  0.34280267    -0.01860
loop_ 
_geom_bond_atom_site_label_1 
_geom_bond_atom_site_label_2 
_geom_bond_distance 
_geom_bond_site_symmetry_2 
_ccdc_geom_bond_type 
O1           C16   1.266       .  A
O1           Al9   1.933       .  S
C2           O12   1.257       .  A
C2            O3   1.254       .  A
C2          C566   1.487       .  S
O3           Al5   1.891       .  S
O4            C6   1.269       .  A
O4           Al5   1.944       .  S
Al5          O13   1.906       .  S
Al5          O15   1.874       .  S
Al5          O14   1.793       .  S
C6           O19   1.256       .  A
C6          C616   1.491       .  S
O7           C17   1.261       .  A
O7           Al9   1.906       .  S
O8           C21   1.260       .  A
O8          Al18   1.904       .  S
Al9          O22   1.892       .  S
Al9          O19   1.881       .  S
Al9          O14   1.785       .  S
O10          C17   1.258       .  A
O10         Al18   1.900       .  S
O11          C20   1.262       .  A
O11         Al18   1.917       .  S
O12         Al18   1.901       .  S
O13          C20   1.262       .  A
O14         Al18   1.791       .  S
O15          C16   1.251       .  A
C16         C609   1.487       .  S
C17         C599   1.475       .  S
C20         C579   1.481       .  S
C21          O22   1.256       .  A
C21         C589   1.489       .  S
O23          C38   1.253       .  A
O23         Al31   1.894       .  S
C24          O34   1.256       .  A
C24          O25   1.262       .  A
C24         C569   1.498       .  S
O25         Al27   1.925       .  S
O26          C28   1.270       .  A
O26         Al27   1.932       .  S
Al27         O35   1.915       .  S
Al27         O37   1.914       .  S
Al27         O36   1.782       .  S
C28          O41   1.265       .  A
C28         C529   1.494       .  S
O29          C39   1.259       .  A
O29         Al31   1.900       .  S
O30          C43   1.262       .  A
O30         Al40   1.909       .  S
Al31         O44   1.888       .  S
Al31         O41   1.905       .  S
Al31         O36   1.763       .  S
O32          C39   1.260       .  A
O32         Al40   1.914       .  S
O33          C42   1.265       .  A
O33         Al40   1.935       .  S
O34         Al40   1.887       .  S
O35          C42   1.266       .  A
O36         Al40   1.776       .  S
O37          C38   1.259       .  A
C38         C536   1.496       .  S
C39         C556   1.473       .  S
C42         C519   1.508       .  S
C43          O44   1.259       .  A
C43         C546   1.472       .  S
O45          C60   1.255       .  A
O45         Al53   1.892       .  S
C46          O56   1.261       .  A
C46          O47   1.267       .  A
C46         C486   1.507       .  S
O47         Al49   1.939       .  S
O48          C50   1.258       .  A
O48         Al49   1.885       .  S
Al49         O57   1.905       .  S
Al49         O59   1.920       .  S
Al49         O58   1.782       .  S
C50          O63   1.269       .  A
C50         C606   1.478       .  S
O51          C61   1.259       .  A
O51         Al53   1.920       .  S
O52          C65   1.266       .  A
O52         Al62   1.900       .  S
Al53         O66   1.935       .  S
Al53         O63   1.936       .  S
Al53         O58   1.778       .  S
O54          C61   1.254       .  A
O54         Al62   1.897       .  S
O55          C64   1.254       .  A
O55         Al62   1.908       .  S
O56         Al62   1.884       .  S
O57          C64   1.259       .  A
O58         Al62   1.777       .  S
O59          C60   1.260       .  A
C60         C506   1.494       .  S
C61         C549   1.504       .  S
C64         C476   1.497       .  S
C65          O66   1.272       .  A
C65         C496   1.485       .  S
O67          C82   1.265       .  A
O67         Al75   1.917       .  S
C68          O78   1.256       .  A
C68          O69   1.260       .  A
C68         C446   1.478       .  S
O69         Al71   1.916       .  S
O70          C72   1.264       .  A
O70         Al71   1.912       .  S
Al71         O79   1.903       .  S
Al71         O81   1.904       .  S
Al71         O80   1.777       .  S
C72          O85   1.256       .  A
C72         C539   1.492       .  S
O73          C83   1.268       .  A
O73         Al75   1.930       .  S
O74          C87   1.258       .  A
O74         Al84   1.899       .  S
Al75         O88   1.900       .  S
Al75         O85   1.895       .  S
Al75         O80   1.774       .  S
O76          C83   1.257       .  A
O76         Al84   1.895       .  S
O77          C86   1.262       .  A
O77         Al84   1.907       .  S
O78         Al84   1.888       .  S
O79          C86   1.263       .  A
O80         Al84   1.777       .  S
O81          C82   1.257       .  A
C82         C466   1.511       .  S
C83         C586   1.503       .  S
C86         C479   1.481       .  S
C87          O88   1.258       .  A
C87         C456   1.469       .  S
O89         C104   1.270       .  A
O89         Al97   1.940       .  S
C90         O100   1.263       .  A
C90          O91   1.258       .  A
C90         C399   1.471       .  S
O91         Al93   1.893       .  S
O92          C94   1.259       .  A
O92         Al93   1.904       .  S
Al93        O101   1.891       .  S
Al93        O103   1.906       .  S
Al93        O102   1.786       .  S
C94         O107   1.261       .  A
C94         C439   1.475       .  S
O95         C105   1.265       .  A
O95         Al97   1.923       .  S
O96         C109   1.262       .  A
O96        Al106   1.913       .  S
Al97        O110   1.918       .  S
Al97        O107   1.909       .  S
Al97        O102   1.779       .  S
O98         C105   1.256       .  A
O98        Al106   1.901       .  S
O99         C108   1.255       .  A
O99        Al106   1.890       .  S
O100       Al106   1.915       .  S
O101        C108   1.258       .  A
O102       Al106   1.779       .  S
O103        C104   1.260       .  A
C104        C429   1.508       .  S
C105        C419   1.510       .  S
C108        C449   1.497       .  S
C109        O110   1.262       .  A
C109        C406   1.502       .  S
O111        C126   1.266       .  A
O111       Al119   1.943       .  S
C112        O122   1.263       .  A
C112        O113   1.255       .  A
C112        C376   1.499       .  S
O113       Al115   1.895       .  S
O114        C116   1.269       .  A
O114       Al115   1.934       .  S
Al115       O123   1.892       .  S
Al115       O125   1.852       .  S
Al115       O124   1.788       .  S
C116        O129   1.254       .  A
C116        C386   1.485       .  S
O117        C127   1.262       .  A
O117       Al119   1.916       .  S
O118        C131   1.268       .  A
O118       Al128   1.937       .  S
Al119       O132   1.870       .  S
Al119       O129   1.858       .  S
Al119       O124   1.780       .  S
O120        C127   1.258       .  A
O120       Al128   1.906       .  S
O121        C130   1.263       .  A
O121       Al128   1.929       .  S
O122       Al128   1.916       .  S
O123        C130   1.257       .  A
O124       Al128   1.787       .  S
O125        C126   1.247       .  A
C126        C436   1.489       .  S
C127        C526   1.481       .  S
C130        C366   1.499       .  S
C131        O132   1.253       .  A
C131        C469   1.499       .  S
O133        C148   1.270       .  A
O133       Al141   1.942       .  S
C134        O144   1.266       .  A
C134        O135   1.252       .  A
C134        C379   1.502       .  S
O135       Al137   1.878       .  S
O136        C138   1.268       .  A
O136       Al137   1.949       .  S
Al137       O145   1.890       .  S
Al137       O147   1.852       .  S
Al137       O146   1.795       .  S
C138        O151   1.248       .  A
C138        C596   1.495       .  S
O139        C149   1.260       .  A
O139       Al141   1.907       .  S
O140        C153   1.265       .  A
O140       Al150   1.930       .  S
Al141       O154   1.883       .  S
Al141       O151   1.849       .  S
Al141       O146   1.781       .  S
O142        C149   1.264       .  A
O142       Al150   1.932       .  S
O143        C152   1.261       .  A
O143       Al150   1.921       .  S
O144       Al150   1.927       .  S
O145        C152   1.256       .  A
O146       Al150   1.791       .  S
O147        C148   1.250       .  A
C148        C459   1.484       .  S
C149        C356   1.508       .  S
C152        C346   1.476       .  S
C153        O154   1.253       .  A
C153        C416   1.496       .  S
O155        C170   1.257       .  A
O155       Al163   1.905       .  S
C156        O166   1.259       .  A
C156        O157   1.257       .  A
C156        C319   1.477       .  S
O157       Al159   1.906       .  S
O158        C160   1.267       .  A
O158       Al159   1.923       .  S
Al159       O167   1.928       .  S
Al159       O169   1.924       .  S
Al159       O168   1.788       .  S
C160        O173   1.265       .  A
C160        C359   1.511       .  S
O161        C171   1.262       .  A
O161       Al163   1.917       .  S
O162        C175   1.258       .  A
O162       Al172   1.905       .  S
Al163       O176   1.913       .  S
Al163       O173   1.922       .  S
Al163       O168   1.780       .  S
O164        C171   1.262       .  A
O164       Al172   1.906       .  S
O165        C174   1.262       .  A
O165       Al172   1.902       .  S
O166       Al172   1.901       .  S
O167        C174   1.271       .  A
O168       Al172   1.781       .  S
O169        C170   1.260       .  A
C170        C409   1.507       .  S
C171        C339   1.490       .  S
C174        C576   1.501       .  S
C175        O176   1.261       .  A
C175        C326   1.488       .  S
O177        C192   1.266       .  A
O177       Al185   1.926       .  S
C178        O188   1.269       .  A
C178        O179   1.262       .  A
C178        C296   1.488       .  S
O179       Al181   1.889       .  S
O180        C182   1.264       .  A
O180       Al181   1.918       .  S
Al181       O189   1.915       .  S
Al181       O191   1.920       .  S
Al181       O190   1.780       .  S
C182        O195   1.260       .  A
C182        C336   1.491       .  S
O183        C193   1.264       .  A
O183       Al185   1.923       .  S
O184        C197   1.269       .  A
O184       Al194   1.942       .  S
Al185       O198   1.885       .  S
Al185       O195   1.900       .  S
Al185       O190   1.778       .  S
O186        C193   1.261       .  A
O186       Al194   1.923       .  S
O187        C196   1.260       .  A
O187       Al194   1.906       .  S
O188       Al194   1.939       .  S
O189        C196   1.260       .  A
O190       Al194   1.784       .  S
O191        C192   1.263       .  A
C192        C306   1.501       .  S
C193        C619   1.488       .  S
C196        C349   1.476       .  S
C197        O198   1.255       .  A
C197        C509   1.492       .  S
O199        C214   1.269       .  A
O199       Al207   1.948       .  S
C200        O210   1.262       .  A
C200        O201   1.255       .  A
C200        C299   1.491       .  S
O201       Al203   1.896       .  S
O202        C204   1.268       .  A
O202       Al203   1.936       .  S
Al203       O211   1.899       .  S
Al203       O213   1.876       .  S
Al203       O212   1.790       .  S
C204        O217   1.257       .  A
C204        C559   1.485       .  S
O205        C215   1.265       .  A
O205       Al207   1.917       .  S
O206        C219   1.266       .  A
O206       Al216   1.931       .  S
Al207       O220   1.881       .  S
Al207       O217   1.877       .  S
Al207       O212   1.787       .  S
O208        C215   1.260       .  A
O208       Al216   1.901       .  S
O209        C218   1.261       .  A
O209       Al216   1.917       .  S
O210       Al216   1.917       .  S
O211        C218   1.259       .  A
O212       Al216   1.793       .  S
O213        C214   1.250       .  A
C214        C499   1.506       .  S
C215        C276   1.484       .  S
C218        C369   1.506       .  S
C219        O220   1.252       .  A
C219        C286   1.497       .  S
O221        C236   1.273       .  A
O221       Al229   1.937       .  S
C222        O232   1.259       .  A
C222        O223   1.260       .  A
C222        C489   1.491       .  S
O223       Al225   1.905       .  S
O224        C226   1.263       .  A
O224       Al225   1.928       .  S
Al225       O233   1.903       .  S
Al225       O235   1.889       .  S
Al225       O234   1.788       .  S
C226        O239   1.253       .  A
C226        C269   1.503       .  S
O227        C237   1.271       .  A
O227       Al229   1.946       .  S
O228        C241   1.263       .  A
O228       Al238   1.929       .  S
Al229       O242   1.899       .  S
Al229       O239   1.887       .  S
Al229       O234   1.785       .  S
O230        C237   1.254       .  A
O230       Al238   1.878       .  S
O231        C240   1.255       .  A
O231       Al238   1.888       .  S
O232       Al238   1.904       .  S
O233        C240   1.259       .  A
O234       Al238   1.787       .  S
O235        C236   1.256       .  A
C236        C289   1.506       .  S
C237        C329   1.504       .  S
C240        C396   1.467       .  S
C241        O242   1.256       .  A
C241        C309   1.508       .  S
O243        C258   1.257       .  A
O243       Al251   1.901       .  S
C244        O254   1.257       .  A
C244        O245   1.264       .  A
C244        C316   1.472       .  S
O245       Al247   1.927       .  S
O246        C248   1.269       .  A
O246       Al247   1.934       .  S
Al247       O255   1.916       .  S
Al247       O257   1.917       .  S
Al247       O256   1.794       .  S
C248        O261   1.261       .  A
C248        C279   1.507       .  S
O249        C259   1.261       .  A
O249       Al251   1.900       .  S
O250        C263   1.261       .  A
O250       Al260   1.912       .  S
Al251       O264   1.902       .  S
Al251       O261   1.898       .  S
Al251       O256   1.771       .  S
O252        C259   1.259       .  A
O252       Al260   1.906       .  S
O253        C262   1.262       .  A
O253       Al260   1.916       .  S
O254       Al260   1.887       .  S
O255        C262   1.264       .  A
O256       Al260   1.790       .  S
O257        C258   1.259       .  A
C258        C266   1.506       .  S
C259        C389   1.473       .  S
C262        C516   1.501       .  S
C263        O264   1.257       .  A
C263        C426   1.483       .  S
C265        C266   1.423       .  A
C265        C270   1.414       .  A
C265       Br272   1.940       .  S
C266        C267   1.422       .  A
C267        C268   1.410       .  A
C267       Br274   1.945       .  S
C268        C269   1.423       .  A
C268       Br273   1.942       .  S
C269        C270   1.417       .  A
C270       Br271   1.935       .  S
C275        C276   1.406       .  A
C275        C280   1.406       .  A
C275       Br282   1.937       .  S
C276        C277   1.411       .  A
C277        C278   1.418       .  A
C277       Br284   1.932       .  S
C278        C279   1.419       .  A
C278       Br283   1.924       .  S
C279        C280   1.425       .  A
C280       Br281   1.935       .  S
C285        C286   1.417       .  A
C285        C290   1.401       .  A
C285       Br292   1.919       .  S
C286        C287   1.414       .  A
C287        C288   1.418       .  A
C287       Br294   1.937       .  S
C288        C289   1.430       .  A
C288       Br293   1.934       .  S
C289        C290   1.403       .  A
C290       Br291   1.924       .  S
C295        C296   1.412       .  A
C295        C300   1.409   1_455  A
C295       Br302   1.932       .  S
C296        C297   1.415       .  A
C297        C298   1.411   1_455  A
C297       Br304   1.934       .  S
C298        C299   1.414       .  A
C298       Br303   1.934       .  S
C299        C300   1.418       .  A
C300       Br301   1.931       .  S
C305        C306   1.417       .  A
C305        C310   1.420       .  A
C305       Br312   1.934       .  S
C306        C307   1.409       .  A
C307        C308   1.405       .  A
C307       Br314   1.935       .  S
C308        C309   1.425       .  A
C308       Br313   1.937       .  S
C309        C310   1.424       .  A
C310       Br311   1.934       .  S
C315        C316   1.407       .  A
C315        C320   1.408   1_655  A
C315       Br322   1.923       .  S
C316        C317   1.408       .  A
C317        C318   1.406   1_655  A
C317       Br324   1.931       .  S
C318        C319   1.413       .  A
C318       Br323   1.929       .  S
C319        C320   1.409       .  A
C320       Br321   1.927       .  S
C325        C326   1.404       .  A
C325        C330   1.409       .  A
C325       Br332   1.936       .  S
C326        C327   1.406       .  A
C327        C328   1.411       .  A
C327       Br334   1.924       .  S
C328        C329   1.414       .  A
C328       Br333   1.920       .  S
C329        C330   1.430       .  A
C330       Br331   1.938       .  S
C335        C336   1.414       .  A
C335        C340   1.400       .  A
C335       Br342   1.937       .  S
C336        C337   1.418       .  A
C337        C338   1.418       .  A
C337       Br344   1.929       .  S
C338        C339   1.412       .  A
C338       Br343   1.926       .  S
C339        C340   1.407       .  A
C340       Br341   1.915       .  S
C345        C346   1.408       .  A
C345        C350   1.409   1_545  A
C345       Br352   1.930       .  S
C346        C347   1.410       .  A
C347        C348   1.411   1_545  A
C347       Br354   1.928       .  S
C348        C349   1.409       .  A
C348       Br353   1.929       .  S
C349        C350   1.410       .  A
C350       Br351   1.929       .  S
C355        C356   1.420       .  A
C355        C360   1.417       .  A
C355       Br362   1.933       .  S
C356        C357   1.420       .  A
C357        C358   1.412       .  A
C357       Br364   1.939       .  S
C358        C359   1.423       .  A
C358       Br363   1.940       .  S
C359        C360   1.421       .  A
C360       Br361   1.937       .  S
C365        C366   1.418       .  A
C365        C370   1.412   1_545  A
C365       Br372   1.937       .  S
C366        C367   1.418       .  A
C367        C368   1.410   1_545  A
C367       Br374   1.941       .  S
C368        C369   1.424       .  A
C368       Br373   1.941       .  S
C369        C370   1.424       .  A
C370       Br371   1.941       .  S
C375        C376   1.415       .  A
C375        C380   1.411   1_655  A
C375       Br382   1.942       .  S
C376        C377   1.424       .  A
C377        C378   1.409   1_655  A
C377       Br384   1.939       .  S
C378        C379   1.414       .  A
C378       Br383   1.938       .  S
C379        C380   1.428       .  A
C380       Br381   1.941       .  S
C385        C386   1.412       .  A
C385        C390   1.413       .  A
C385       Br392   1.926       .  S
C386        C387   1.423       .  A
C387        C388   1.399       .  A
C387       Br394   1.941       .  S
C388        C389   1.405       .  A
C388       Br393   1.935       .  S
C389        C390   1.410       .  A
C390       Br391   1.924       .  S
C395        C396   1.408       .  A
C395        C400   1.409   1_565  A
C395       Br402   1.930       .  S
C396        C397   1.407       .  A
C397        C398   1.404   1_565  A
C397       Br404   1.931       .  S
C398        C399   1.409       .  A
C398       Br403   1.927       .  S
C399        C400   1.409       .  A
C400       Br401   1.926       .  S
C405        C406   1.419       .  A
C405        C410   1.411       .  A
C405       Br412   1.939       .  S
C406        C407   1.420       .  A
C407        C408   1.415       .  A
C407       Br414   1.940       .  S
C408        C409   1.423       .  A
C408       Br413   1.940       .  S
C409        C410   1.423       .  A
C410       Br411   1.941       .  S
C415        C416   1.419       .  A
C415        C420   1.411       .  A
C415       Br422   1.936       .  S
C416        C417   1.411       .  A
C417        C418   1.413       .  A
C417       Br424   1.939       .  S
C418        C419   1.432       .  A
C418       Br423   1.941       .  S
C419        C420   1.421       .  A
C420       Br421   1.939       .  S
C425        C426   1.409       .  A
C425        C430   1.415       .  A
C425       Br432   1.923       .  S
C426        C427   1.406       .  A
C427        C428   1.407       .  A
C427       Br434   1.932       .  S
C428        C429   1.420       .  A
C428       Br433   1.922       .  S
C429        C430   1.413       .  A
C430       Br431   1.922       .  S
C435        C436   1.410       .  A
C435        C440   1.410       .  A
C435       Br442   1.919       .  S
C436        C437   1.425       .  A
C437        C438   1.401       .  A
C437       Br444   1.939       .  S
C438        C439   1.399       .  A
C438       Br443   1.919       .  S
C439        C440   1.406       .  A
C440       Br441   1.920       .  S
C445        C446   1.408       .  A
C445        C450   1.407   1_554  A
C445       Br452   1.928       .  S
C446        C447   1.407       .  A
C447        C448   1.407   1_554  A
C447       Br454   1.939       .  S
C448        C449   1.429       .  A
C448       Br453   1.942       .  S
C449        C450   1.423       .  A
C450       Br451   1.941       .  S
C455        C456   1.400       .  A
C455        C460   1.399       .  A
C455       Br462   1.925       .  S
C456        C457   1.406       .  A
C457        C458   1.411       .  A
C457       Br464   1.923       .  S
C458        C459   1.411       .  A
C458       Br463   1.922       .  S
C459        C460   1.424       .  A
C460       Br461   1.942       .  S
C465        C466   1.421       .  A
C465        C470   1.410       .  A
C465       Br472   1.942       .  S
C466        C467   1.433       .  A
C467        C468   1.415       .  A
C467       Br474   1.942       .  S
C468        C469   1.411       .  A
C468       Br473   1.939       .  S
C469        C470   1.421       .  A
C470       Br471   1.936       .  S
C475        C476   1.428       .  A
C475        C480   1.411   1_565  A
C475       Br482   1.938       .  S
C476        C477   1.416       .  A
C477        C478   1.401   1_565  A
C477       Br484   1.935       .  S
C478        C479   1.411       .  A
C478       Br483   1.931       .  S
C479        C480   1.409       .  A
C480       Br481   1.937       .  S
C485        C486   1.429       .  A
C485        C490   1.414   1_554  A
C485       Br492   1.939       .  S
C486        C487   1.426       .  A
C487        C488   1.406   1_554  A
C487       Br494   1.946       .  S
C488        C489   1.411       .  A
C488       Br493   1.929       .  S
C489        C490   1.411       .  A
C490       Br491   1.937       .  S
C495        C496   1.407       .  A
C495        C500   1.409       .  A
C495       Br502   1.932       .  S
C496        C497   1.408       .  A
C497        C498   1.407       .  A
C497       Br504   1.926       .  S
C498        C499   1.408       .  A
C498       Br503   1.911       .  S
C499        C500   1.429       .  A
C500       Br501   1.936       .  S
C505        C506   1.416       .  A
C505        C510   1.409       .  A
C505       Br512   1.938       .  S
C506        C507   1.414       .  A
C507        C508   1.413       .  A
C507       Br514   1.922       .  S
C508        C509   1.410       .  A
C508       Br513   1.931       .  S
C509        C510   1.419       .  A
C510       Br511   1.938       .  S
C515        C516   1.418       .  A
C515        C520   1.410   1_556  A
C515       Br522   1.936       .  S
C516        C517   1.415       .  A
C517        C518   1.415   1_556  A
C517       Br524   1.936       .  S
C518        C519   1.425       .  A
C518       Br523   1.937       .  S
C519        C520   1.418       .  A
C520       Br521   1.934       .  S
C525        C526   1.412       .  A
C525        C530   1.420       .  A
C525       Br532   1.927       .  S
C526        C527   1.405       .  A
C527        C528   1.401       .  A
C527       Br534   1.931       .  S
C528        C529   1.416       .  A
C528       Br533   1.928       .  S
C529        C530   1.416       .  A
C530       Br531   1.928       .  S
C535        C536   1.418       .  A
C535        C540   1.407       .  A
C535       Br542   1.933       .  S
C536        C537   1.421       .  A
C537        C538   1.407       .  A
C537       Br544   1.944       .  S
C538        C539   1.423       .  A
C538       Br543   1.944       .  S
C539        C540   1.415       .  A
C540       Br541   1.939       .  S
C545        C546   1.403       .  A
C545        C550   1.409       .  A
C545       Br552   1.929       .  S
C546        C547   1.402       .  A
C547        C548   1.407       .  A
C547       Br554   1.937       .  S
C548        C549   1.425       .  A
C548       Br553   1.922       .  S
C549        C550   1.418       .  A
C550       Br551   1.916       .  S
C555        C556   1.409       .  A
C555        C560   1.415       .  A
C555       Br562   1.927       .  S
C556        C557   1.405       .  A
C557        C558   1.399       .  A
C557       Br564   1.931       .  S
C558        C559   1.417       .  A
C558       Br563   1.934       .  S
C559        C560   1.413       .  A
C560       Br561   1.923       .  S
C565        C566   1.416       .  A
C565        C570   1.406   1_455  A
C565       Br572   1.940       .  S
C566        C567   1.412       .  A
C567        C568   1.409   1_455  A
C567       Br574   1.939       .  S
C568        C569   1.424       .  A
C568       Br573   1.939       .  S
C569        C570   1.424       .  A
C570       Br571   1.945       .  S
C575        C576   1.427       .  A
C575        C580   1.410   1_556  A
C575       Br582   1.936       .  S
C576        C577   1.418       .  A
C577        C578   1.413   1_556  A
C577       Br584   1.933       .  S
C578        C579   1.409       .  A
C578       Br583   1.930       .  S
C579        C580   1.404       .  A
C580       Br581   1.935       .  S
C585        C586   1.407       .  A
C585        C590   1.407       .  A
C585       Br592   1.921       .  S
C586        C587   1.419       .  A
C587        C588   1.409       .  A
C587       Br594   1.934       .  S
C588        C589   1.416       .  A
C588       Br593   1.934       .  S
C589        C590   1.416       .  A
C590       Br591   1.928       .  S
C595        C596   1.427       .  A
C595        C600   1.401       .  A
C595       Br602   1.943       .  S
C596        C597   1.415       .  A
C597        C598   1.416       .  A
C597       Br604   1.925       .  S
C598        C599   1.411       .  A
C598       Br603   1.929       .  S
C599        C600   1.403       .  A
C600       Br601   1.937       .  S
C605        C606   1.406       .  A
C605        C610   1.411       .  A
C605       Br612   1.916       .  S
C606        C607   1.407       .  A
C607        C608   1.404       .  A
C607       Br614   1.931       .  S
C608        C609   1.420       .  A
C608       Br613   1.939       .  S
C609        C610   1.409       .  A
C610       Br611   1.924       .  S
C615        C616   1.412       .  A
C615        C620   1.389       .  A
C615       Br622   1.935       .  S
C616        C617   1.417       .  A
C617        C618   1.425       .  A
C617       Br624   1.923       .  S
C618        C619   1.414       .  A
C618       Br623   1.922       .  S
C619        C620   1.399       .  A
C620       Br621   1.910       .  S
