geometry optimzed in LAMMPS
_audit_creation_date              2020-12-01 
_audit_creation_method            'lammps2cif' 
_symmetry_space_group_name_H-M    'P1' 
_symmetry_Int_Tables_number       1 
_symmetry_cell_setting            triclinic 
loop_ 
_symmetry_equiv_pos_as_xyz 
  x,y,z 
_cell_length_a                    39.63760577 
_cell_length_b                    30.90509008715306 
_cell_length_c                    28.46074502912588 
_cell_angle_alpha                 110.2855202356495 
_cell_angle_beta                  90.00605420964024 
_cell_angle_gamma                 90.00820837285035 
loop_ 
_atom_site_label 
_atom_site_type_symbol 
_atom_site_fract_x 
_atom_site_fract_y 
_atom_site_fract_z 
_atom_site_charge 
O1          O  0.09293578  0.13302299  0.94172639    -0.79500
O2          O  0.16234239  0.32826968  0.97807243    -0.64200
O3          O  0.13704387  0.20933816  0.97794881    -1.10800
C4          C  0.06650303  0.28848540  0.11218409     1.07400
O5          O  0.15937523  0.36622743  0.06031231    -0.77400
O6          O  0.15758766  0.30073471  0.10386499    -0.65000
Ni7        Ni  0.12626866  0.16305706  0.91424964     1.34900
C8          C  0.15390509  0.25977933  0.10323810     0.86100
O9          O  0.18573800  0.24502016  0.93112209    -0.77900
O10         O  0.15943246  0.18426612  0.87725188    -0.88200
C11         C  0.16907251  0.36267693  0.01661272     0.85700
O12         O  0.09215005  0.19989725  0.89977346    -0.66400
O13         O  0.09012576  0.31813417  0.12358425    -0.85700
C14         C  0.09569730  0.24068586  0.89976247     0.86500
C15         C  0.18331485  0.21350058  0.88872069     1.08100
H16         H  0.09570225  0.30330601  0.00889412     0.39900
O17         O  0.11368406  0.29140725  0.02385960    -1.08400
O18         O  0.13081466  0.23271082  0.07858976    -0.65000
Ni19       Ni  0.10075752  0.23210575  0.02460018     1.26300
O20         O  0.11923398  0.26768008  0.92321680    -0.65200
O21         O  0.06468785  0.25596415  0.07037300    -0.77500
C22         C  0.08241445  0.13725662  0.98522625     0.85900
O23         O  0.08779715  0.17258721  0.02343136    -0.64700
Ni24       Ni  0.12459784  0.33786678  0.08735201     1.27400
Ni25       Ni  0.14972964  0.26868432  0.97702100     1.26100
H26         H  0.15503135  0.19754872  0.99303413     0.40500
O27         O  0.34188057  0.63359604  0.94093645    -0.79500
O28         O  0.41220870  0.82811289  0.97725697    -0.64200
O29         O  0.38683867  0.70913982  0.97700060    -1.10800
C30         C  0.31678489  0.78863120  0.11209003     1.07400
O31         O  0.40990811  0.86561061  0.05961007    -0.77400
O32         O  0.40769211  0.80061073  0.10358005    -0.65000
Ni33       Ni  0.37575056  0.66283983  0.91344556     1.34900
C34         C  0.40425151  0.75950691  0.10255208     0.86100
O35         O  0.43534590  0.74481119  0.92977763    -0.77900
O36         O  0.40932847  0.68333390  0.87650934    -0.88200
C37         C  0.41933642  0.86224462  0.01586014     0.85700
O38         O  0.34205472  0.69988589  0.89839308    -0.66400
O39         O  0.34024339  0.81851805  0.12308868    -0.85700
C40         C  0.34555431  0.74080574  0.89881374     0.86500
C41         C  0.43306499  0.71279038  0.88769232     1.08100
H42         H  0.34566571  0.80312553  0.00859840     0.39900
O43         O  0.36374939  0.79122335  0.02339370    -1.08400
O44         O  0.38130157  0.73229816  0.07770447    -0.65000
Ni45       Ni  0.35087638  0.73189444  0.02421124     1.26300
O46         O  0.36892855  0.76784124  0.92267342    -0.65200
O47         O  0.31507623  0.75568648  0.07057819    -0.77500
C48         C  0.33188800  0.63746819  0.98458073     0.85900
O49         O  0.33802470  0.67231275  0.02297386    -0.64700
Ni50       Ni  0.37488339  0.83775982  0.08675014     1.27400
Ni51       Ni  0.39956868  0.76850046  0.97611510     1.26100
H52         H  0.40492041  0.69726301  0.99181187     0.40500
O53         O  0.34333158  0.36821698  0.55959560    -0.79500
O54         O  0.41187267  0.17261262  0.52360136    -0.64200
O55         O  0.38732925  0.29169577  0.52332506    -1.10800
C56         C  0.31605450  0.21263049  0.38965506     1.07400
O57         O  0.40904277  0.13483123  0.44134770    -0.77400
O58         O  0.40685230  0.19940350  0.39675225    -0.65000
Ni59       Ni  0.37693063  0.33842568  0.58689490     1.34900
C60         C  0.40358849  0.24045235  0.39751326     0.86100
O61         O  0.43584091  0.25562802  0.57014856    -0.77900
O62         O  0.41037191  0.31743859  0.62364184    -0.88200
C63         C  0.41867849  0.13827822  0.48503793     0.85700
O64         O  0.34288526  0.30213456  0.60246517    -0.66400
O65         O  0.33923351  0.18235063  0.37851529    -0.85700
C66         C  0.34607497  0.26126953  0.60236316     0.86500
C67         C  0.43389329  0.28767152  0.61224821     1.08100
H68         H  0.34538088  0.19834269  0.49300987     0.39900
O69         O  0.36345196  0.20987213  0.47782314    -1.08400
O70         O  0.38096802  0.26806573  0.42266609    -0.65000
Ni71       Ni  0.35092004  0.26924136  0.47680344     1.26300
O72         O  0.36924227  0.23382233  0.57851186    -0.65200
O73         O  0.31472858  0.24573595  0.43107871    -0.77500
C74         C  0.33289707  0.36409579  0.51608603     0.85900
O75         O  0.33839622  0.32886880  0.47782080    -0.64700
Ni76       Ni  0.37397939  0.16289511  0.41450052     1.27400
Ni77       Ni  0.39965254  0.23228656  0.52447475     1.26100
H78         H  0.40539908  0.30315570  0.50806979     0.40500
O79         O  0.09174763  0.86703604  0.55892256    -0.79500
O80         O  0.16265704  0.67288857  0.52304621    -0.64200
O81         O  0.13649334  0.79144762  0.52306239    -1.10800
C82         C  0.06692918  0.71122177  0.38789270     1.07400
O83         O  0.16038921  0.63510289  0.44072802    -0.77400
O84         O  0.15806266  0.70059687  0.39718725    -0.65000
Ni85       Ni  0.12519201  0.83743545  0.58670425     1.34900
C86         C  0.15406127  0.74152080  0.39786569     0.86100
O87         O  0.18533584  0.75647568  0.57033390    -0.77900
O88         O  0.15837572  0.81664715  0.62402708    -0.88200
C89         C  0.16983847  0.63869250  0.48455286     0.85700
O90         O  0.09129876  0.79997601  0.60062785    -0.66400
O91         O  0.09078610  0.68193127  0.37676880    -0.85700
C92         C  0.09519970  0.75925045  0.60065954     0.86500
C93         C  0.18253804  0.78786476  0.61275546     1.08100
H94         H  0.09598132  0.69677550  0.49143314     0.39900
O95         O  0.11390651  0.70901773  0.47672349    -1.08400
O96         O  0.13072029  0.76818272  0.42234840    -0.65000
Ni97       Ni  0.10051318  0.76813640  0.47594619     1.26300
O98         O  0.11900849  0.73269177  0.57744805    -0.65200
O99         O  0.06477174  0.74372024  0.42968252    -0.77500
C100        C  0.08134108  0.86269855  0.51533508     0.85900
O101        O  0.08704873  0.82748295  0.47714065    -0.64700
Ni102      Ni  0.12538710  0.66282032  0.41333349     1.27400
Ni103      Ni  0.14963091  0.73228018  0.52401881     1.26100
H104        H  0.15443523  0.80357917  0.50823121     0.40500
C105        C  0.47888756  0.03564847  0.49690201     0.18400
C106        C  0.98335621  0.02878289  0.54263392    -0.10700
C107        C  0.00486050  0.99394730  0.54558414    -0.11500
C108        C  0.02200139  0.96585826  0.50282833     0.20000
C109        C  0.51755308  0.97273828  0.45709257    -0.13600
C110        C  0.49604346  0.00758096  0.45414152    -0.11900
C111        C  0.04381220  0.92972363  0.50589510     0.01000
C112        C  0.06143660  0.89924159  0.50948310    -0.31900
C113        C  0.45692392  0.07164310  0.49386711     0.02300
C114        C  0.43902689  0.10197186  0.49053396    -0.33500
H115        H  0.97024399  0.05031817  0.57592795     0.13400
H116        H  0.00808291  0.98886962  0.58112093     0.13200
H117        H  0.53064230  0.95117152  0.42379150     0.13100
H118        H  0.49279104  0.01263559  0.41859747     0.12100
C119        C  0.27373483  0.46745057  0.50377738     0.18400
C120        C  0.26626759  0.47081444  0.45706210    -0.10700
C121        C  0.24468673  0.50549832  0.45393065    -0.11500
C122        C  0.23046559  0.53692203  0.49749158     0.20000
C123        C  0.23795324  0.53359205  0.54422366    -0.13600
C124        C  0.25953885  0.49890058  0.54735585    -0.11900
C125        C  0.20840029  0.57268228  0.49414544     0.01000
C126        C  0.19038159  0.60271105  0.49037433    -0.31900
C127        C  0.29554863  0.43139174  0.50698805     0.02300
C128        C  0.31313773  0.40083755  0.51045056    -0.33500
H129        H  0.27705193  0.44661469  0.42313487     0.13400
H130        H  0.23908232  0.50780718  0.41761304     0.13200
H131        H  0.22711826  0.55774478  0.57813876     0.13100
H132        H  0.26509810  0.49653595  0.58366235     0.12100
C133        C  0.49576173  0.71475714  0.77534242     0.18400
C134        C  0.48014529  0.72422301  0.73578514    -0.10700
C135        C  0.49958113  0.72931358  0.69703413    -0.11500
C136        C  0.03472823  0.72491721  0.69764272     0.20000
C137        C  0.05032307  0.71486116  0.73686606    -0.13600
C138        C  0.03087570  0.70977333  0.77564503    -0.11900
C139        C  0.05494376  0.73334378  0.65971169     0.01000
C140        C  0.07270118  0.74343530  0.63070647    -0.31900
C141        C  0.47570348  0.71174174  0.81623283     0.02300
C142        C  0.45732240  0.71115490  0.84974329    -0.33500
H143        H  0.45301256  0.72830830  0.73528027     0.13400
H144        H  0.48728181  0.73739992  0.66709299     0.13200
H145        H  0.07751433  0.71170860  0.73787656     0.13100
H146        H  0.04321843  0.70261724  0.80612450     0.12100
C147        C  0.46459534  0.72431793  0.19919178     0.18400
C148        C  0.44919273  0.71205837  0.23712188    -0.10700
C149        C  0.46872099  0.70621142  0.27544508    -0.11500
C150        C  0.00372056  0.71264530  0.27597577     0.20000
C151        C  0.01915450  0.72427295  0.23765772    -0.13600
C152        C  0.99964101  0.73012813  0.19937476    -0.11900
C153        C  0.02381126  0.70924534  0.31667215     0.01000
C154        C  0.04234995  0.70885816  0.35010297    -0.31900
C155        C  0.44426408  0.73337118  0.16174294     0.02300
C156        C  0.42653297  0.74372786  0.13289312    -0.33500
H157        H  0.42207570  0.70777782  0.23750793     0.13400
H158        H  0.45651196  0.69740236  0.30498104     0.13200
H159        H  0.04619071  0.72951474  0.23782031     0.13100
H160        H  0.01178775  0.73990239  0.17043650     0.12100
C161        C  0.24510491  0.78509007  0.72496127     0.18000
C162        C  0.27976611  0.79440417  0.72699114    -0.10700
C163        C  0.29940728  0.78916586  0.76551622    -0.11500
C164        C  0.28444951  0.77464314  0.80215606     0.20000
C165        C  0.24972979  0.76581906  0.80041158    -0.13600
C166        C  0.23010184  0.77105904  0.76191854    -0.11900
C167        C  0.30500964  0.76633484  0.83981262     0.01000
C168        C  0.32296920  0.75640839  0.86871117    -0.31900
C169        C  0.22495908  0.78853123  0.68434537     0.02300
C170        C  0.20661990  0.78939306  0.65089641    -0.33500
H171        H  0.29163895  0.80512319  0.69852526     0.13400
H172        H  0.32628675  0.79575936  0.76632073     0.13200
H173        H  0.23795118  0.75425433  0.82832896     0.13100
H174        H  0.20333282  0.76361769  0.76060567     0.12100
C175        C  0.21363980  0.77749536  0.30091514     0.18400
C176        C  0.19807647  0.78193966  0.25858227    -0.10700
C177        C  0.21767643  0.78747832  0.22016917    -0.11500
C178        C  0.25292469  0.78858105  0.22393905     0.20000
C179        C  0.26845233  0.78496457  0.26667850    -0.13600
C180        C  0.24886224  0.77940740  0.30506317    -0.11900
C181        C  0.27333724  0.79114136  0.18314798     0.01000
C182        C  0.29205718  0.79104420  0.14971916    -0.31900
C183        C  0.19355439  0.76831138  0.33855012     0.02300
C184        C  0.17607396  0.75767497  0.36748198    -0.33500
H185        H  0.17086014  0.78023660  0.25485107     0.13400
H186        H  0.20540763  0.79004349  0.18721809     0.13200
H187        H  0.29570118  0.78557681  0.26989023     0.13100
H188        H  0.26117636  0.77573436  0.33746155     0.12100
C189        C  0.49638533  0.28420065  0.72421749     0.18400
C190        C  0.03089259  0.29463167  0.72754234    -0.10700
C191        C  0.05017370  0.28950712  0.76647422    -0.11500
C192        C  0.03501440  0.27398199  0.80223156     0.20000
C193        C  0.50044869  0.26398678  0.79915176    -0.13600
C194        C  0.48118451  0.26910775  0.76025649    -0.11900
C195        C  0.05526657  0.26585030  0.84031670     0.01000
C196        C  0.07309393  0.25608462  0.86948327    -0.31900
C197        C  0.47654964  0.28780332  0.68337137     0.02300
C198        C  0.45821741  0.28887948  0.64999202    -0.33500
H199        H  0.04292537  0.30619101  0.69980871     0.13400
H200        H  0.07694366  0.29700410  0.76829519     0.13200
H201        H  0.48851495  0.25163437  0.82635591     0.13100
H202        H  0.45453531  0.26080867  0.75795083     0.12100
C203        C  0.00254746  0.28687867  0.22322802     0.18400
C204        C  0.46734614  0.28455740  0.21875991    -0.10700
C205        C  0.44771289  0.27869520  0.25695584    -0.11500
C206        C  0.46320879  0.27513020  0.29974114     0.20000
C207        C  0.99837307  0.27813607  0.30452577    -0.13600
C208        C  0.01799729  0.28400595  0.26635229    -0.11900
C209        C  0.44313660  0.26600877  0.33737873     0.01000
C210        C  0.42566291  0.25574772  0.36655166    -0.31900
C211        C  0.02302298  0.29008084  0.18282098     0.02300
C212        C  0.04177555  0.29052231  0.14965575    -0.33500
H213        H  0.45515387  0.28652018  0.18548663     0.13400
H214        H  0.42053949  0.27615737  0.25276377     0.13200
H215        H  0.01062200  0.27516623  0.33730702     0.13100
H216        H  0.04521708  0.28553987  0.27007904     0.12100
C217        C  0.24588447  0.21735003  0.77693351     0.18400
C218        C  0.28044024  0.20726544  0.77413229    -0.10700
C219        C  0.29995620  0.21274694  0.73560631    -0.11500
C220        C  0.28498442  0.22827401  0.69972035     0.20000
C221        C  0.25037288  0.23792080  0.70226549    -0.13600
C222        C  0.23087193  0.23244046  0.74075759    -0.11900
C223        C  0.30543583  0.23655165  0.66191705     0.01000
C224        C  0.32339154  0.24621239  0.63281824    -0.31900
C225        C  0.22584134  0.21353147  0.81748963     0.02300
C226        C  0.20749021  0.21234790  0.85080509    -0.33500
H227        H  0.29233009  0.19571546  0.80197739     0.13400
H228        H  0.32675359  0.20549408  0.73418320     0.13200
H229        H  0.23857795  0.25024793  0.67494041     0.13100
H230        H  0.20418801  0.24047701  0.74265878     0.12100
C231        C  0.25196922  0.21344031  0.27838236     0.18400
C232        C  0.21723820  0.22154252  0.28508730    -0.10700
C233        C  0.19778185  0.22718852  0.24661909    -0.11500
C234        C  0.21297221  0.22476707  0.20130076     0.20000
C235        C  0.24760781  0.21592820  0.19429511    -0.13600
C236        C  0.26706299  0.21026299  0.23275840    -0.11900
C237        C  0.19326929  0.23372869  0.16320386     0.01000
C238        C  0.17593977  0.24407339  0.13393103    -0.31900
C239        C  0.27248117  0.21067457  0.31896880     0.02300
C240        C  0.29124098  0.21051112  0.35224705    -0.33500
H241        H  0.20534002  0.22428698  0.32027525     0.13400
H242        H  0.17104068  0.23424748  0.25251957     0.13200
H243        H  0.25964163  0.21422488  0.15951961     0.13100
H244        H  0.29393945  0.20422729  0.22726492     0.12100
C245        C  0.47990440  0.96444185  0.00378252     0.18400
C246        C  0.49283345  0.99714393  0.04757789    -0.10700
C247        C  0.51447119  0.03183190  0.04455346    -0.11500
C248        C  0.02328591  0.03391045  0.99771823     0.20000
C249        C  0.01037927  0.00118065  0.95392870    -0.13600
C250        C  0.98874433  0.96649745  0.95695273    -0.11900
C251        C  0.04512889  0.06996478  0.99452840     0.01000
C252        C  0.06270320  0.10049791  0.99095259    -0.31900
C253        C  0.45782154  0.92861259  0.00693109     0.02300
C254        C  0.43981688  0.89841121  0.01032515    -0.33500
H255        H  0.48618859  0.99582123  0.08398184     0.13400
H256        H  0.52424965  0.05702838  0.07864328     0.13200
H257        H  0.01697978  0.00254070  0.91752526     0.13100
H258        H  0.97892502  0.94134417  0.92286443     0.12100
C259        C  0.22929343  0.46497517  0.00388652     0.18400
C260        C  0.23753844  0.46730355  0.95695822    -0.10700
C261        C  0.25909026  0.50196465  0.95363665    -0.11500
C262        C  0.27250167  0.53439967  0.99722751     0.20000
C263        C  0.26429215  0.53203210  0.04414519    -0.13600
C264        C  0.24274290  0.49737421  0.04746662    -0.11900
C265        C  0.29429594  0.57041343  0.99380759     0.01000
C266        C  0.31193844  0.60089059  0.99024957    -0.31900
C267        C  0.20729538  0.42917828  0.00737027     0.02300
C268        C  0.18939388  0.39897515  0.01102248    -0.33500
H269        H  0.22732137  0.44238209  0.92302671     0.13400
H270        H  0.26523552  0.50353307  0.91716761     0.13200
H271        H  0.27447878  0.55698412  0.07808044     0.13100
H272        H  0.23657025  0.49584030  0.08394061     0.12100
O273        O  0.59293572  0.13302300  0.94172639    -0.79500
O274        O  0.66234238  0.32826967  0.97807242    -0.64200
O275        O  0.63704387  0.20933813  0.97794884    -1.10800
C276        C  0.56650301  0.28848540  0.11218411     1.07400
O277        O  0.65937516  0.36622746  0.06031230    -0.77400
O278        O  0.65758773  0.30073469  0.10386492    -0.65000
Ni279      Ni  0.62626860  0.16305706  0.91424964     1.34900
C280        C  0.65390513  0.25977933  0.10323808     0.86100
O281        O  0.68573800  0.24502013  0.93112208    -0.77900
O282        O  0.65943240  0.18426614  0.87725188    -0.88200
C283        C  0.66907246  0.36267695  0.01661271     0.85700
O284        O  0.59215000  0.19989728  0.89977352    -0.66400
O285        O  0.59012580  0.31813409  0.12358429    -0.85700
C286        C  0.59569730  0.24068587  0.89976251     0.86500
C287        C  0.68331481  0.21350057  0.88872067     1.08100
H288        H  0.59570225  0.30330601  0.00889408     0.39900
O289        O  0.61368405  0.29140725  0.02385958    -1.08400
O290        O  0.63081465  0.23271087  0.07858980    -0.65000
Ni291      Ni  0.60075748  0.23210577  0.02460018     1.26300
O292        O  0.61923403  0.26768003  0.92321675    -0.65200
O293        O  0.56468780  0.25596418  0.07037299    -0.77500
C294        C  0.58241439  0.13725663  0.98522625     0.85900
O295        O  0.58779708  0.17258722  0.02343137    -0.64700
Ni296      Ni  0.62459784  0.33786674  0.08735201     1.27400
Ni297      Ni  0.64972964  0.26868430  0.97702099     1.26100
H298        H  0.65503121  0.19754871  0.99303407     0.40500
O299        O  0.84188058  0.63359605  0.94093645    -0.79500
O300        O  0.91220873  0.82811289  0.97725697    -0.64200
O301        O  0.88683870  0.70913985  0.97700060    -1.10800
C302        C  0.81678491  0.78863121  0.11209002     1.07400
O303        O  0.90990823  0.86561055  0.05961008    -0.77400
O304        O  0.90769212  0.80061069  0.10358006    -0.65000
Ni305      Ni  0.87575061  0.66283981  0.91344558     1.34900
C306        C  0.90425147  0.75950689  0.10255211     0.86100
O307        O  0.93534587  0.74481122  0.92977761    -0.77900
O308        O  0.90932853  0.68333384  0.87650936    -0.88200
C309        C  0.91933645  0.86224463  0.01586014     0.85700
O310        O  0.84205474  0.69988586  0.89839308    -0.66400
O311        O  0.84024339  0.81851808  0.12308864    -0.85700
C312        C  0.84555429  0.74080573  0.89881376     0.86500
C313        C  0.93306499  0.71279040  0.88769231     1.08100
H314        H  0.84566571  0.80312554  0.00859846     0.39900
O315        O  0.86374942  0.79122336  0.02339372    -1.08400
O316        O  0.88130153  0.73229815  0.07770450    -0.65000
Ni317      Ni  0.85087641  0.73189444  0.02421124     1.26300
O318        O  0.86892851  0.76784125  0.92267345    -0.65200
O319        O  0.81507623  0.75568649  0.07057816    -0.77500
C320        C  0.83188797  0.63746821  0.98458071     0.85900
O321        O  0.83802469  0.67231276  0.02297385    -0.64700
Ni322      Ni  0.87488344  0.83775982  0.08675013     1.27400
Ni323      Ni  0.89956870  0.76850047  0.97611510     1.26100
H324        H  0.90492060  0.69726305  0.99181195     0.40500
O325        O  0.84333159  0.36821699  0.55959559    -0.79500
O326        O  0.91187264  0.17261261  0.52360138    -0.64200
O327        O  0.88732927  0.29169575  0.52332506    -1.10800
C328        C  0.81605455  0.21263052  0.38965502     1.07400
O329        O  0.90904271  0.13483122  0.44134771    -0.77400
O330        O  0.90685224  0.19940349  0.39675225    -0.65000
Ni331      Ni  0.87693065  0.33842568  0.58689488     1.34900
C332        C  0.90358843  0.24045235  0.39751324     0.86100
O333        O  0.93584091  0.25562801  0.57014858    -0.77900
O334        O  0.91037189  0.31743858  0.62364186    -0.88200
C335        C  0.91867843  0.13827821  0.48503794     0.85700
O336        O  0.84288527  0.30213459  0.60246515    -0.66400
O337        O  0.83923352  0.18235059  0.37851527    -0.85700
C338        C  0.84607494  0.26126955  0.60236311     0.86500
C339        C  0.93389326  0.28767150  0.61224825     1.08100
H340        H  0.84538080  0.19834268  0.49300996     0.39900
O341        O  0.86345200  0.20987217  0.47782313    -1.08400
O342        O  0.88096797  0.26806574  0.42266609    -0.65000
Ni343      Ni  0.85092005  0.26924137  0.47680344     1.26300
O344        O  0.86924225  0.23382234  0.57851183    -0.65200
O345        O  0.81472864  0.24573595  0.43107868    -0.77500
C346        C  0.83289702  0.36409578  0.51608605     0.85900
O347        O  0.83839617  0.32886879  0.47782082    -0.64700
Ni348      Ni  0.87397935  0.16289510  0.41450054     1.27400
Ni349      Ni  0.89965255  0.23228656  0.52447474     1.26100
H350        H  0.90539923  0.30315571  0.50806969     0.40500
O351        O  0.59174768  0.86703604  0.55892257    -0.79500
O352        O  0.66265702  0.67288854  0.52304621    -0.64200
O353        O  0.63649341  0.79144764  0.52306237    -1.10800
C354        C  0.56692928  0.71122176  0.38789267     1.07400
O355        O  0.66038938  0.63510295  0.44072800    -0.77400
O356        O  0.65806268  0.70059691  0.39718725    -0.65000
Ni357      Ni  0.62519206  0.83743545  0.58670425     1.34900
C358        C  0.65406124  0.74152082  0.39786567     0.86100
O359        O  0.68533588  0.75647567  0.57033388    -0.77900
O360        O  0.65837579  0.81664716  0.62402706    -0.88200
C361        C  0.66983853  0.63869252  0.48455287     0.85700
O362        O  0.59129879  0.79997602  0.60062783    -0.66400
O363        O  0.59078620  0.68193124  0.37676876    -0.85700
C364        C  0.59519971  0.75925046  0.60065953     0.86500
C365        C  0.68253810  0.78786473  0.61275546     1.08100
H366        H  0.59598132  0.69677550  0.49143311     0.39900
O367        O  0.61390654  0.70901772  0.47672349    -1.08400
O368        O  0.63072028  0.76818273  0.42234840    -0.65000
Ni369      Ni  0.60051322  0.76813640  0.47594620     1.26300
O370        O  0.61900852  0.73269181  0.57744812    -0.65200
O371        O  0.56477185  0.74372023  0.42968249    -0.77500
C372        C  0.58134110  0.86269856  0.51533509     0.85900
O373        O  0.58704876  0.82748294  0.47714066    -0.64700
Ni374      Ni  0.62538720  0.66282031  0.41333348     1.27400
Ni375      Ni  0.64963093  0.73228017  0.52401883     1.26100
H376        H  0.65443519  0.80357910  0.50823126     0.40500
C377        C  0.97888749  0.03564845  0.49690201     0.18400
C378        C  0.48335625  0.02878292  0.54263393    -0.10700
C379        C  0.50486051  0.99394728  0.54558414    -0.11500
C380        C  0.52200142  0.96585828  0.50282833     0.20000
C381        C  0.01755306  0.97273832  0.45709259    -0.13600
C382        C  0.99604343  0.00758096  0.45414155    -0.11900
C383        C  0.54381219  0.92972360  0.50589510     0.01000
C384        C  0.56143659  0.89924157  0.50948311    -0.31900
C385        C  0.95692385  0.07164308  0.49386710     0.02300
C386        C  0.93902683  0.10197184  0.49053396    -0.33500
H387        H  0.47024402  0.05031821  0.57592796     0.13400
H388        H  0.50808288  0.98886951  0.58112089     0.13200
H389        H  0.03064235  0.95117165  0.42379154     0.13100
H390        H  0.99279105  0.01263562  0.41859751     0.12100
C391        C  0.77373482  0.46745055  0.50377736     0.18400
C392        C  0.76626758  0.47081440  0.45706207    -0.10700
C393        C  0.74468681  0.50549838  0.45393062    -0.11500
C394        C  0.73046565  0.53692207  0.49749156     0.20000
C395        C  0.73795327  0.53359203  0.54422364    -0.13600
C396        C  0.75953890  0.49890062  0.54735582    -0.11900
C397        C  0.70840029  0.57268225  0.49414545     0.01000
C398        C  0.69038159  0.60271103  0.49037438    -0.31900
C399        C  0.79554857  0.43139171  0.50698804     0.02300
C400        C  0.81313767  0.40083753  0.51045058    -0.33500
H401        H  0.77705186  0.44661457  0.42313486     0.13400
H402        H  0.73908242  0.50780722  0.41761301     0.13200
H403        H  0.72711821  0.55774465  0.57813875     0.13100
H404        H  0.76509817  0.49653602  0.58366233     0.12100
C405        C  0.99576170  0.71475714  0.77534239     0.18400
C406        C  0.98014531  0.72422300  0.73578514    -0.10700
C407        C  0.99958107  0.72931359  0.69703411    -0.11500
C408        C  0.53472829  0.72491721  0.69764275     0.20000
C409        C  0.55032313  0.71486116  0.73686610    -0.13600
C410        C  0.53087578  0.70977332  0.77564509    -0.11900
C411        C  0.55494378  0.73334377  0.65971168     0.01000
C412        C  0.57270115  0.74343530  0.63070641    -0.31900
C413        C  0.97570344  0.71174175  0.81623282     0.02300
C414        C  0.95732237  0.71115495  0.84974330    -0.33500
H415        H  0.95301257  0.72830829  0.73528031     0.13400
H416        H  0.98728170  0.73739994  0.66709300     0.13200
H417        H  0.57751439  0.71170862  0.73787658     0.13100
H418        H  0.54321850  0.70261721  0.80612456     0.12100
C419        C  0.96459527  0.72431792  0.19919180     0.18400
C420        C  0.94919260  0.71205834  0.23712186    -0.10700
C421        C  0.96872095  0.70621143  0.27544503    -0.11500
C422        C  0.50372058  0.71264529  0.27597580     0.20000
C423        C  0.51915454  0.72427296  0.23765774    -0.13600
C424        C  0.49964105  0.73012813  0.19937475    -0.11900
C425        C  0.52381127  0.70924534  0.31667220     0.01000
C426        C  0.54234999  0.70885813  0.35010299    -0.31900
C427        C  0.94426404  0.73337118  0.16174296     0.02300
C428        C  0.92653291  0.74372784  0.13289315    -0.33500
H429        H  0.92207558  0.70777777  0.23750794     0.13400
H430        H  0.95651197  0.69740237  0.30498101     0.13200
H431        H  0.54619075  0.72951476  0.23782035     0.13100
H432        H  0.51178777  0.73990238  0.17043648     0.12100
C433        C  0.74510498  0.78509002  0.72496127     0.18000
C434        C  0.77976614  0.79440415  0.72699117    -0.10700
C435        C  0.79940738  0.78916590  0.76551628    -0.11500
C436        C  0.78444954  0.77464314  0.80215609     0.20000
C437        C  0.74972981  0.76581901  0.80041160    -0.13600
C438        C  0.73010195  0.77105892  0.76191846    -0.11900
C439        C  0.80500964  0.76633484  0.83981261     0.01000
C440        C  0.82296918  0.75640836  0.86871117    -0.31900
C441        C  0.72495913  0.78853121  0.68434536     0.02300
C442        C  0.70661994  0.78939302  0.65089642    -0.33500
H443        H  0.79163893  0.80512317  0.69852528     0.13400
H444        H  0.82628684  0.79575943  0.76632080     0.13200
H445        H  0.73795114  0.75425432  0.82832900     0.13100
H446        H  0.70333293  0.76361748  0.76060549     0.12100
C447        C  0.71363975  0.77749536  0.30091513     0.18400
C448        C  0.69807646  0.78193966  0.25858222    -0.10700
C449        C  0.71767642  0.78747828  0.22016911    -0.11500
C450        C  0.75292468  0.78858105  0.22393905     0.20000
C451        C  0.76845229  0.78496458  0.26667853    -0.13600
C452        C  0.74886218  0.77940740  0.30506319    -0.11900
C453        C  0.77333725  0.79114135  0.18314799     0.01000
C454        C  0.79205721  0.79104418  0.14971919    -0.31900
C455        C  0.69355432  0.76831139  0.33855010     0.02300
C456        C  0.67607390  0.75767498  0.36748195    -0.33500
H457        H  0.67086013  0.78023658  0.25485099     0.13400
H458        H  0.70540763  0.79004339  0.18721799     0.13200
H459        H  0.79570113  0.78557681  0.26989028     0.13100
H460        H  0.76117629  0.77573436  0.33746157     0.12100
C461        C  0.99638538  0.28420066  0.72421743     0.18400
C462        C  0.53089252  0.29463169  0.72754243    -0.10700
C463        C  0.55017370  0.28950718  0.76647423    -0.11500
C464        C  0.53501444  0.27398199  0.80223157     0.20000
C465        C  0.00044867  0.26398682  0.79915173    -0.13600
C466        C  0.98118451  0.26910779  0.76025644    -0.11900
C467        C  0.55526663  0.26585032  0.84031667     0.01000
C468        C  0.57309395  0.25608466  0.86948330    -0.31900
C469        C  0.97654965  0.28780333  0.68337137     0.02300
C470        C  0.95821737  0.28887947  0.64999207    -0.33500
H471        H  0.54292524  0.30619107  0.69980879     0.13400
H472        H  0.57694364  0.29700425  0.76829516     0.13200
H473        H  0.98851490  0.25163444  0.82635588     0.13100
H474        H  0.95453531  0.26080873  0.75795078     0.12100
C475        C  0.50254738  0.28687868  0.22322798     0.18400
C476        C  0.96734620  0.28455739  0.21875989    -0.10700
C477        C  0.94771285  0.27869519  0.25695577    -0.11500
C478        C  0.96320875  0.27513020  0.29974111     0.20000
C479        C  0.49837308  0.27813607  0.30452575    -0.13600
C480        C  0.51799725  0.28400596  0.26635224    -0.11900
C481        C  0.94313654  0.26600877  0.33737870     0.01000
C482        C  0.92566285  0.25574772  0.36655163    -0.31900
C483        C  0.52302289  0.29008085  0.18282095     0.02300
C484        C  0.54177550  0.29052234  0.14965577    -0.33500
H485        H  0.95515402  0.28652018  0.18548657     0.13400
H486        H  0.92053945  0.27615737  0.25276363     0.13200
H487        H  0.51062203  0.27516623  0.33730698     0.13100
H488        H  0.54521704  0.28553989  0.27007892     0.12100
C489        C  0.74588447  0.21735004  0.77693353     0.18400
C490        C  0.78044024  0.20726542  0.77413231    -0.10700
C491        C  0.79995622  0.21274692  0.73560634    -0.11500
C492        C  0.78498446  0.22827401  0.69972040     0.20000
C493        C  0.75037294  0.23792078  0.70226552    -0.13600
C494        C  0.73087195  0.23244045  0.74075759    -0.11900
C495        C  0.80543588  0.23655165  0.66191709     0.01000
C496        C  0.82339154  0.24621241  0.63281822    -0.31900
C497        C  0.72584131  0.21353148  0.81748962     0.02300
C498        C  0.70749015  0.21234789  0.85080505    -0.33500
H499        H  0.79233008  0.19571542  0.80197739     0.13400
H500        H  0.82675360  0.20549404  0.73418324     0.13200
H501        H  0.73857799  0.25024790  0.67494044     0.13100
H502        H  0.70418802  0.24047699  0.74265872     0.12100
C503        C  0.75196925  0.21344036  0.27838241     0.18400
C504        C  0.71723820  0.22154253  0.28508735    -0.10700
C505        C  0.69778193  0.22718851  0.24661907    -0.11500
C506        C  0.71297229  0.22476708  0.20130076     0.20000
C507        C  0.74760788  0.21592827  0.19429518    -0.13600
C508        C  0.76706308  0.21026314  0.23275850    -0.11900
C509        C  0.69326937  0.23372869  0.16320382     0.01000
C510        C  0.67593981  0.24407337  0.13393102    -0.31900
C511        C  0.77248119  0.21067458  0.31896881     0.02300
C512        C  0.79124104  0.21051116  0.35224702    -0.33500
H513        H  0.70533999  0.22428697  0.32027528     0.13400
H514        H  0.67104075  0.23424743  0.25251946     0.13200
H515        H  0.75964170  0.21422490  0.15951967     0.13100
H516        H  0.79393954  0.20422752  0.22726505     0.12100
C517        C  0.97990443  0.96444184  0.00378254     0.18400
C518        C  0.99283348  0.99714393  0.04757786    -0.10700
C519        C  0.01447123  0.03183187  0.04455344    -0.11500
C520        C  0.52328589  0.03391046  0.99771825     0.20000
C521        C  0.51037934  0.00118058  0.95392869    -0.13600
C522        C  0.48874434  0.96649741  0.95695267    -0.11900
C523        C  0.54512883  0.06996480  0.99452842     0.01000
C524        C  0.56270313  0.10049793  0.99095259    -0.31900
C525        C  0.95782153  0.92861262  0.00693111     0.02300
C526        C  0.93981684  0.89841125  0.01032514    -0.33500
H527        H  0.98618861  0.99582128  0.08398182     0.13400
H528        H  0.02424973  0.05702831  0.07864326     0.13200
H529        H  0.51697994  0.00254059  0.91752527     0.13100
H530        H  0.47892506  0.94134413  0.92286435     0.12100
C531        C  0.72929349  0.46497510  0.00388650     0.18400
C532        C  0.73753854  0.46730347  0.95695820    -0.10700
C533        C  0.75909029  0.50196466  0.95363666    -0.11500
C534        C  0.77250170  0.53439964  0.99722752     0.20000
C535        C  0.76429213  0.53203212  0.04414520    -0.13600
C536        C  0.74274288  0.49737423  0.04746662    -0.11900
C537        C  0.79429592  0.57041345  0.99380760     0.01000
C538        C  0.81193838  0.60089063  0.99024955    -0.31900
C539        C  0.70729536  0.42917828  0.00737025     0.02300
C540        C  0.68939381  0.39897519  0.01102247    -0.33500
H541        H  0.72732150  0.44238199  0.92302667     0.13400
H542        H  0.76523550  0.50353321  0.91716765     0.13200
H543        H  0.77447871  0.55698421  0.07808047     0.13100
H544        H  0.73657014  0.49584040  0.08394062     0.12100
loop_ 
_geom_bond_atom_site_label_1 
_geom_bond_atom_site_label_2 
_geom_bond_distance 
_geom_bond_site_symmetry_2 
_ccdc_geom_bond_type 
O1           Ni7   1.929       .  S
O1           C22   1.269       .  A
O2          Ni25   1.898       .  S
O2           C11   1.263   1_556  A
O3           Ni7   1.928       .  S
O3          Ni25   1.911       .  S
O3          Ni19   1.918   1_556  S
O3           H26   0.966       .  S
C4           O21   1.266       .  A
C4           O13   1.271       .  A
C4          C212   1.434       .  S
O5          Ni24   1.931       .  S
O5           C11   1.270       .  A
O6          Ni24   1.903       .  S
O6            C8   1.268       .  A
Ni7          O10   1.935       .  S
Ni7          O12   1.903       .  S
C8           O18   1.274       .  A
C8          C238   1.434       .  S
O9          Ni25   1.902       .  S
O9           C15   1.265       .  A
O10          C15   1.271       .  A
C11         C268   1.434       .  S
O12          C14   1.268       .  A
O13         Ni24   1.933       .  S
C14          O20   1.275       .  A
C14         C196   1.434       .  S
C15         C226   1.434       .  S
H16          O17   0.966       .  S
O17         Ni25   1.914   1_554  S
O17         Ni19   1.910       .  S
O17         Ni24   1.927       .  S
O18         Ni19   1.939       .  S
Ni19         O23   1.899       .  S
Ni19         O21   1.903       .  S
O20         Ni25   1.943       .  S
C22          O23   1.264   1_556  A
C22         C252   1.434       .  S
O27         Ni33   1.929       .  S
O27          C48   1.269       .  A
O28         Ni51   1.899       .  S
O28          C37   1.263   1_556  A
O29         Ni33   1.928       .  S
O29         Ni51   1.911       .  S
O29         Ni45   1.918   1_556  S
O29          H52   0.966       .  S
C30          O47   1.266       .  A
C30          O39   1.271       .  A
C30         C182   1.435       .  S
O31         Ni50   1.930       .  S
O31          C37   1.269       .  A
O32         Ni50   1.903       .  S
O32          C34   1.268       .  A
Ni33         O36   1.934       .  S
Ni33         O38   1.902       .  S
C34          O44   1.274       .  A
C34         C156   1.434       .  S
O35         Ni51   1.902       .  S
O35          C41   1.265       .  A
O36          C41   1.270       .  A
C37         C254   1.434       .  S
O38          C40   1.268       .  A
O39         Ni50   1.933       .  S
C40          O46   1.274       .  A
C40         C168   1.433       .  S
C41         C142   1.434       .  S
H42          O43   0.966       .  S
O43         Ni51   1.914   1_554  S
O43         Ni45   1.911       .  S
O43         Ni50   1.928       .  S
O44         Ni45   1.939       .  S
Ni45         O49   1.899       .  S
Ni45         O47   1.904       .  S
O46         Ni51   1.941       .  S
C48          O49   1.264   1_556  A
C48         C266   1.434       .  S
O53         Ni59   1.929       .  S
O53          C74   1.269       .  A
O54         Ni77   1.899       .  S
O54          C63   1.263       .  A
O55         Ni59   1.928       .  S
O55         Ni77   1.911       .  S
O55         Ni71   1.918       .  S
O55          H78   0.966       .  S
C56          O73   1.266       .  A
C56          O65   1.271       .  A
C56         C240   1.434       .  S
O57         Ni76   1.931       .  S
O57          C63   1.269       .  A
O58         Ni76   1.903       .  S
O58          C60   1.268       .  A
Ni59         O62   1.934       .  S
Ni59         O64   1.903       .  S
C60          O70   1.273       .  A
C60         C210   1.433       .  S
O61         Ni77   1.902       .  S
O61          C67   1.265       .  A
O62          C67   1.270       .  A
C63         C114   1.434       .  S
O64          C66   1.268       .  A
O65         Ni76   1.932       .  S
C66          O72   1.275       .  A
C66         C224   1.434       .  S
C67         C198   1.434       .  S
H68          O69   0.966       .  S
O69         Ni77   1.914       .  S
O69         Ni71   1.911       .  S
O69         Ni76   1.928       .  S
O70         Ni71   1.938       .  S
Ni71         O75   1.899       .  S
Ni71         O73   1.903       .  S
O72         Ni77   1.942       .  S
C74          O75   1.264       .  A
C74         C128   1.434       .  S
O79         Ni85   1.929       .  S
O79         C100   1.269       .  A
O80        Ni103   1.898       .  S
O80          C89   1.263       .  A
O81         Ni85   1.928       .  S
O81        Ni103   1.911       .  S
O81         Ni97   1.918       .  S
O81         H104   0.967       .  S
C82          O99   1.266       .  A
C82          O91   1.271       .  A
C82         C154   1.434       .  S
O83        Ni102   1.931       .  S
O83          C89   1.270       .  A
O84        Ni102   1.904       .  S
O84          C86   1.268       .  A
Ni85         O88   1.935       .  S
Ni85         O90   1.903       .  S
C86          O96   1.274       .  A
C86         C184   1.434       .  S
O87        Ni103   1.901       .  S
O87          C93   1.265       .  A
O88          C93   1.270       .  A
C89         C126   1.434       .  S
O90          C92   1.268       .  A
O91        Ni102   1.934       .  S
C92          O98   1.275       .  A
C92         C140   1.434       .  S
C93         C170   1.434       .  S
H94          O95   0.966       .  S
O95        Ni103   1.914       .  S
O95         Ni97   1.910       .  S
O95        Ni102   1.927       .  S
O96         Ni97   1.940       .  S
Ni97        O101   1.899       .  S
Ni97         O99   1.903       .  S
O98        Ni103   1.942       .  S
C100        O101   1.264       .  A
C100        C112   1.434       .  S
C105        C113   1.439       .  S
C105        C110   1.402       .  A
C105        C378   1.401       .  A
C106        C107   1.398   1_645  A
C106        C377   1.401       .  A
C106        H115   1.083       .  S
C107        C108   1.401       .  A
C107        H116   1.083       .  S
C108        C111   1.439       .  S
C108        C381   1.401       .  A
C109        C110   1.399   1_565  A
C109        C380   1.401       .  A
C109        H117   1.083       .  S
C110        H118   1.083       .  S
C111        C112   1.205       .  T
C113        C114   1.205       .  T
C119        C127   1.438       .  S
C119        C120   1.401       .  A
C119        C124   1.401       .  A
C120        C121   1.398       .  A
C120        H129   1.083       .  S
C121        C122   1.401       .  A
C121        H130   1.083       .  S
C122        C125   1.438       .  S
C122        C123   1.401       .  A
C123        C124   1.399       .  A
C123        H131   1.083       .  S
C124        H132   1.083       .  S
C125        C126   1.205       .  T
C127        C128   1.205       .  T
C133        C141   1.439       .  S
C133        C134   1.402       .  A
C133        C410   1.401       .  A
C134        C135   1.398       .  A
C134        H143   1.084       .  S
C135        C408   1.400       .  A
C135        H144   1.083       .  S
C136        C139   1.439       .  S
C136        C137   1.402       .  A
C136        C407   1.400   1_455  A
C137        C138   1.399       .  A
C137        H145   1.083       .  S
C138        C405   1.401   1_455  A
C138        H146   1.083       .  S
C139        C140   1.205       .  T
C141        C142   1.205       .  T
C147        C155   1.439       .  S
C147        C148   1.402       .  A
C147        C424   1.400       .  A
C148        C149   1.399       .  A
C148        H157   1.083       .  S
C149        C422   1.401       .  A
C149        H158   1.083       .  S
C150        C153   1.439       .  S
C150        C151   1.402       .  A
C150        C421   1.401   1_455  A
C151        C152   1.398   1_455  A
C151        H159   1.084       .  S
C152        C419   1.400       .  A
C152        H160   1.083   1_655  S
C153        C154   1.205       .  T
C155        C156   1.205       .  T
C161        C169   1.439       .  S
C161        C162   1.401       .  A
C161        C166   1.402       .  A
C162        C163   1.399       .  A
C162        H171   1.083       .  S
C163        C164   1.402       .  A
C163        H172   1.083       .  S
C164        C167   1.439       .  S
C164        C165   1.400       .  A
C165        C166   1.398       .  A
C165        H173   1.083       .  S
C166        H174   1.084       .  S
C167        C168   1.205       .  T
C169        C170   1.205       .  T
C175        C183   1.440       .  S
C175        C176   1.402       .  A
C175        C180   1.401       .  A
C176        C177   1.399       .  A
C176        H185   1.083       .  S
C177        C178   1.401       .  A
C177        H186   1.083       .  S
C178        C181   1.440       .  S
C178        C179   1.402       .  A
C179        C180   1.399       .  A
C179        H187   1.084       .  S
C180        H188   1.083       .  S
C181        C182   1.206       .  T
C183        C184   1.206       .  T
C189        C197   1.439       .  S
C189        C194   1.402       .  A
C189        C462   1.401       .  A
C190        C191   1.399       .  A
C190        C461   1.401   1_455  A
C190        H199   1.083       .  S
C191        C192   1.402       .  A
C191        H200   1.083       .  S
C192        C195   1.439       .  S
C192        C465   1.400       .  A
C193        C194   1.398       .  A
C193        C464   1.400       .  A
C193        H201   1.083       .  S
C194        H202   1.084       .  S
C195        C196   1.205       .  T
C197        C198   1.206       .  T
C203        C211   1.439       .  S
C203        C208   1.402       .  A
C203        C476   1.401   1_455  A
C204        C205   1.399       .  A
C204        C475   1.401       .  A
C204        H213   1.083       .  S
C205        C206   1.402       .  A
C205        H214   1.083       .  S
C206        C209   1.439       .  S
C206        C479   1.400       .  A
C207        C208   1.398   1_655  A
C207        C478   1.400       .  A
C207        H215   1.083   1_655  S
C208        H216   1.084       .  S
C209        C210   1.205       .  T
C211        C212   1.205       .  T
C217        C225   1.439       .  S
C217        C218   1.401       .  A
C217        C222   1.402       .  A
C218        C219   1.399       .  A
C218        H227   1.083       .  S
C219        C220   1.402       .  A
C219        H228   1.083       .  S
C220        C223   1.439       .  S
C220        C221   1.401       .  A
C221        C222   1.398       .  A
C221        H229   1.083       .  S
C222        H230   1.084       .  S
C223        C224   1.205       .  T
C225        C226   1.206       .  T
C231        C239   1.439       .  S
C231        C232   1.400       .  A
C231        C236   1.402       .  A
C232        C233   1.399       .  A
C232        H241   1.083       .  S
C233        C234   1.402       .  A
C233        H242   1.084       .  S
C234        C237   1.439       .  S
C234        C235   1.401       .  A
C235        C236   1.399       .  A
C235        H243   1.083       .  S
C236        H244   1.084       .  S
C237        C238   1.205       .  T
C239        C240   1.205       .  T
C245        C253   1.438       .  S
C245        C246   1.401       .  A
C245        C522   1.401   1_554  A
C246        C247   1.399   1_565  A
C246        H255   1.083       .  S
C247        C520   1.401   1_554  A
C247        H256   1.083       .  S
C248        C251   1.439       .  S
C248        C249   1.401       .  A
C248        C519   1.401   1_556  A
C249        C250   1.398   1_445  A
C249        H257   1.083       .  S
C250        C517   1.401   1_556  A
C250        H258   1.083       .  S
C251        C252   1.205       .  T
C253        C254   1.205       .  T
C259        C267   1.439       .  S
C259        C260   1.401   1_554  A
C259        C264   1.401       .  A
C260        C261   1.399       .  A
C260        H269   1.083       .  S
C261        C262   1.401       .  A
C261        H270   1.083       .  S
C262        C265   1.439       .  S
C262        C263   1.401   1_556  A
C263        C264   1.398       .  A
C263        H271   1.083       .  S
C264        H272   1.083       .  S
C265        C266   1.205       .  T
C267        C268   1.205       .  T
O273       Ni279   1.929       .  S
O273        C294   1.269       .  A
O274       Ni297   1.898       .  S
O274        C283   1.263   1_556  A
O275       Ni279   1.928       .  S
O275       Ni297   1.911       .  S
O275       Ni291   1.918   1_556  S
O275        H298   0.966       .  S
C276        O293   1.266       .  A
C276        O285   1.271       .  A
C276        C484   1.434       .  S
O277       Ni296   1.931       .  S
O277        C283   1.270       .  A
O278       Ni296   1.903       .  S
O278        C280   1.268       .  A
Ni279       O282   1.935       .  S
Ni279       O284   1.903       .  S
C280        O290   1.274       .  A
C280        C510   1.434       .  S
O281       Ni297   1.902       .  S
O281        C287   1.265       .  A
O282        C287   1.271       .  A
C283        C540   1.434       .  S
O284        C286   1.268       .  A
O285       Ni296   1.933       .  S
C286        O292   1.275       .  A
C286        C468   1.434       .  S
C287        C498   1.434       .  S
H288        O289   0.966       .  S
O289       Ni297   1.914   1_554  S
O289       Ni291   1.910       .  S
O289       Ni296   1.927       .  S
O290       Ni291   1.939       .  S
Ni291       O295   1.899       .  S
Ni291       O293   1.903       .  S
O292       Ni297   1.943       .  S
C294        O295   1.264   1_556  A
C294        C524   1.434       .  S
O299       Ni305   1.929       .  S
O299        C320   1.269       .  A
O300       Ni323   1.899       .  S
O300        C309   1.263   1_556  A
O301       Ni305   1.928       .  S
O301       Ni323   1.911       .  S
O301       Ni317   1.918   1_556  S
O301        H324   0.966       .  S
C302        O319   1.266       .  A
C302        O311   1.271       .  A
C302        C454   1.435       .  S
O303       Ni322   1.930       .  S
O303        C309   1.269       .  A
O304       Ni322   1.903       .  S
O304        C306   1.268       .  A
Ni305       O308   1.934       .  S
Ni305       O310   1.902       .  S
C306        O316   1.274       .  A
C306        C428   1.434       .  S
O307       Ni323   1.902       .  S
O307        C313   1.265       .  A
O308        C313   1.270       .  A
C309        C526   1.434       .  S
O310        C312   1.268       .  A
O311       Ni322   1.933       .  S
C312        O318   1.274       .  A
C312        C440   1.433       .  S
C313        C414   1.434       .  S
H314        O315   0.966       .  S
O315       Ni323   1.914   1_554  S
O315       Ni317   1.911       .  S
O315       Ni322   1.928       .  S
O316       Ni317   1.939       .  S
Ni317       O321   1.899       .  S
Ni317       O319   1.904       .  S
O318       Ni323   1.941       .  S
C320        O321   1.264   1_556  A
C320        C538   1.434       .  S
O325       Ni331   1.929       .  S
O325        C346   1.269       .  A
O326       Ni349   1.899       .  S
O326        C335   1.263       .  A
O327       Ni331   1.928       .  S
O327       Ni349   1.911       .  S
O327       Ni343   1.918       .  S
O327        H350   0.966       .  S
C328        O345   1.266       .  A
C328        O337   1.271       .  A
C328        C512   1.434       .  S
O329       Ni348   1.931       .  S
O329        C335   1.269       .  A
O330       Ni348   1.903       .  S
O330        C332   1.268       .  A
Ni331       O334   1.934       .  S
Ni331       O336   1.903       .  S
C332        O342   1.273       .  A
C332        C482   1.433       .  S
O333       Ni349   1.902       .  S
O333        C339   1.265       .  A
O334        C339   1.270       .  A
C335        C386   1.434       .  S
O336        C338   1.268       .  A
O337       Ni348   1.932       .  S
C338        O344   1.275       .  A
C338        C496   1.434       .  S
C339        C470   1.434       .  S
H340        O341   0.966       .  S
O341       Ni349   1.914       .  S
O341       Ni343   1.911       .  S
O341       Ni348   1.928       .  S
O342       Ni343   1.938       .  S
Ni343       O347   1.899       .  S
Ni343       O345   1.903       .  S
O344       Ni349   1.942       .  S
C346        O347   1.264       .  A
C346        C400   1.434       .  S
O351       Ni357   1.929       .  S
O351        C372   1.269       .  A
O352       Ni375   1.898       .  S
O352        C361   1.263       .  A
O353       Ni357   1.928       .  S
O353       Ni375   1.911       .  S
O353       Ni369   1.918       .  S
O353        H376   0.967       .  S
C354        O371   1.266       .  A
C354        O363   1.271       .  A
C354        C426   1.434       .  S
O355       Ni374   1.931       .  S
O355        C361   1.270       .  A
O356       Ni374   1.904       .  S
O356        C358   1.268       .  A
Ni357       O360   1.935       .  S
Ni357       O362   1.903       .  S
C358        O368   1.274       .  A
C358        C456   1.434       .  S
O359       Ni375   1.901       .  S
O359        C365   1.265       .  A
O360        C365   1.270       .  A
C361        C398   1.434       .  S
O362        C364   1.268       .  A
O363       Ni374   1.934       .  S
C364        O370   1.275       .  A
C364        C412   1.434       .  S
C365        C442   1.434       .  S
H366        O367   0.966       .  S
O367       Ni375   1.914       .  S
O367       Ni369   1.910       .  S
O367       Ni374   1.927       .  S
O368       Ni369   1.940       .  S
Ni369       O373   1.899       .  S
Ni369       O371   1.903       .  S
O370       Ni375   1.942       .  S
C372        O373   1.264       .  A
C372        C384   1.434       .  S
C377        C385   1.439       .  S
C377        C382   1.402       .  A
C378        C379   1.398   1_545  A
C378        H387   1.083       .  S
C379        C380   1.401       .  A
C379        H388   1.083       .  S
C380        C383   1.439       .  S
C381        C382   1.399   1_465  A
C381        H389   1.083       .  S
C382        H390   1.083       .  S
C383        C384   1.205       .  T
C385        C386   1.205       .  T
C391        C399   1.438       .  S
C391        C392   1.401       .  A
C391        C396   1.401       .  A
C392        C393   1.398       .  A
C392        H401   1.083       .  S
C393        C394   1.401       .  A
C393        H402   1.083       .  S
C394        C397   1.438       .  S
C394        C395   1.401       .  A
C395        C396   1.399       .  A
C395        H403   1.083       .  S
C396        H404   1.083       .  S
C397        C398   1.205       .  T
C399        C400   1.205       .  T
C405        C413   1.439       .  S
C405        C406   1.402       .  A
C406        C407   1.398       .  A
C406        H415   1.084       .  S
C407        H416   1.083       .  S
C408        C411   1.439       .  S
C408        C409   1.402       .  A
C409        C410   1.399       .  A
C409        H417   1.083       .  S
C410        H418   1.083       .  S
C411        C412   1.205       .  T
C413        C414   1.205       .  T
C419        C427   1.439       .  S
C419        C420   1.402       .  A
C420        C421   1.399       .  A
C420        H429   1.083       .  S
C421        H430   1.083       .  S
C422        C425   1.439       .  S
C422        C423   1.402       .  A
C423        C424   1.398       .  A
C423        H431   1.084       .  S
C424        H432   1.083       .  S
C425        C426   1.205       .  T
C427        C428   1.205       .  T
C433        C441   1.439       .  S
C433        C434   1.401       .  A
C433        C438   1.402       .  A
C434        C435   1.399       .  A
C434        H443   1.083       .  S
C435        C436   1.402       .  A
C435        H444   1.083       .  S
C436        C439   1.439       .  S
C436        C437   1.400       .  A
C437        C438   1.398       .  A
C437        H445   1.083       .  S
C438        H446   1.084       .  S
C439        C440   1.205       .  T
C441        C442   1.205       .  T
C447        C455   1.440       .  S
C447        C448   1.402       .  A
C447        C452   1.401       .  A
C448        C449   1.399       .  A
C448        H457   1.083       .  S
C449        C450   1.401       .  A
C449        H458   1.083       .  S
C450        C453   1.440       .  S
C450        C451   1.402       .  A
C451        C452   1.399       .  A
C451        H459   1.084       .  S
C452        H460   1.083       .  S
C453        C454   1.206       .  T
C455        C456   1.206       .  T
C461        C469   1.439       .  S
C461        C466   1.402       .  A
C462        C463   1.399       .  A
C462        H471   1.083       .  S
C463        C464   1.402       .  A
C463        H472   1.083       .  S
C464        C467   1.439       .  S
C465        C466   1.398   1_455  A
C465        H473   1.083   1_455  S
C466        H474   1.084       .  S
C467        C468   1.205       .  T
C469        C470   1.206       .  T
C475        C483   1.439       .  S
C475        C480   1.402       .  A
C476        C477   1.399       .  A
C476        H485   1.083       .  S
C477        C478   1.402       .  A
C477        H486   1.083       .  S
C478        C481   1.439       .  S
C479        C480   1.398       .  A
C479        H487   1.083       .  S
C480        H488   1.084       .  S
C481        C482   1.205       .  T
C483        C484   1.205       .  T
C489        C497   1.439       .  S
C489        C490   1.401       .  A
C489        C494   1.402       .  A
C490        C491   1.399       .  A
C490        H499   1.083       .  S
C491        C492   1.402       .  A
C491        H500   1.083       .  S
C492        C495   1.439       .  S
C492        C493   1.401       .  A
C493        C494   1.398       .  A
C493        H501   1.083       .  S
C494        H502   1.084       .  S
C495        C496   1.205       .  T
C497        C498   1.206       .  T
C503        C511   1.439       .  S
C503        C504   1.400       .  A
C503        C508   1.402       .  A
C504        C505   1.399       .  A
C504        H513   1.083       .  S
C505        C506   1.402       .  A
C505        H514   1.084       .  S
C506        C509   1.439       .  S
C506        C507   1.401       .  A
C507        C508   1.399       .  A
C507        H515   1.083       .  S
C508        H516   1.084       .  S
C509        C510   1.205       .  T
C511        C512   1.205       .  T
C517        C525   1.438       .  S
C517        C518   1.401       .  A
C518        C519   1.399   1_665  A
C518        H527   1.083       .  S
C519        H528   1.083       .  S
C520        C523   1.439       .  S
C520        C521   1.401       .  A
C521        C522   1.398   1_545  A
C521        H529   1.083       .  S
C522        H530   1.083       .  S
C523        C524   1.205       .  T
C525        C526   1.205       .  T
C531        C539   1.439       .  S
C531        C532   1.401   1_554  A
C531        C536   1.401       .  A
C532        C533   1.399       .  A
C532        H541   1.083       .  S
C533        C534   1.401       .  A
C533        H542   1.083       .  S
C534        C537   1.439       .  S
C534        C535   1.401   1_556  A
C535        C536   1.398       .  A
C535        H543   1.083       .  S
C536        H544   1.083       .  S
C537        C538   1.205       .  T
C539        C540   1.205       .  T
