geometry optimzed in LAMMPS
_audit_creation_date              2020-11-30 
_audit_creation_method            'lammps2cif' 
_symmetry_space_group_name_H-M    'P1' 
_symmetry_Int_Tables_number       1 
_symmetry_cell_setting            triclinic 
loop_ 
_symmetry_equiv_pos_as_xyz 
  x,y,z 
_cell_length_a                    30.02768756 
_cell_length_b                    43.397135596406585 
_cell_length_c                    40.12246950524115 
_cell_angle_alpha                 90.54596810050509 
_cell_angle_beta                  89.90046368543854 
_cell_angle_gamma                 90.0097349842672 
loop_ 
_atom_site_label 
_atom_site_type_symbol 
_atom_site_fract_x 
_atom_site_fract_y 
_atom_site_fract_z 
_atom_site_charge 
Zn1        Zn  0.06153357  0.12755766  0.00073331     1.49700
Zn2        Zn  0.14275043  0.15350311  0.46026334     1.49400
Zn3        Zn  0.14651521  0.15150018  0.03933787     1.49100
Zn4        Zn  0.15240885  0.08759065  0.49682191     1.49500
O5          O  0.12617063  0.12972611  0.99935367    -1.83500
O6          O  0.03342368  0.14569332  0.45990450    -0.74200
O7          O  0.18287367  0.18947292  0.47231431    -0.74000
O8          O  0.09572745  0.16437908  0.06968679    -0.73500
O9          O  0.08971346  0.16742629  0.43323484    -0.74200
O10         O  0.03684949  0.14753274  0.04184186    -0.73800
O11         O  0.18398813  0.18884672  0.02772250    -0.74400
O12         O  0.19205037  0.07905658  0.03733872    -0.73800
O13         O  0.17546205  0.12610242  0.42870370    -0.74500
O14         O  0.18312215  0.12254469  0.06656116    -0.73900
O15         O  0.18721932  0.08125540  0.45361524    -0.74400
O16         O  0.10298642  0.05544153  0.49658082    -0.74300
O17         O  0.04161606  0.08372210  0.00227763    -0.74100
C18         C  0.04855516  0.16056350  0.43515325     0.77700
C19         C  0.19600504  0.20063649  0.50012299     0.78200
C20         C  0.05383330  0.16031280  0.06748159     0.77200
C21         C  0.19879620  0.09540880  0.06345899     0.77500
C22         C  0.19105696  0.09887290  0.42851968     0.78700
C23         C  0.06083838  0.05772266  0.99965916     0.77700
Zn24       Zn  0.39396164  0.40321528  0.46096909     1.49700
Zn25       Zn  0.39221894  0.40519245  0.03952900     1.49400
Zn26       Zn  0.30998479  0.37867248  0.50104708     1.49100
Zn27       Zn  0.40111824  0.33910231  0.50054816     1.49500
O28         O  0.37458088  0.38110145  0.50050587    -1.83500
O29         O  0.43350203  0.43947228  0.47237015    -0.74200
O30         O  0.34093273  0.41865415  0.06863225    -0.74000
O31         O  0.28469818  0.39714702  0.45970757    -0.73500
O32         O  0.42929829  0.44201302  0.02758868    -0.74200
O33         O  0.34242507  0.41680031  0.43272610    -0.73800
O34         O  0.28340744  0.39911216  0.04140106    -0.74400
O35         O  0.35155333  0.30664682  0.50022605    -0.73800
O36         O  0.42843646  0.37847732  0.06854258    -0.74500
O37         O  0.28952870  0.33464141  0.50261710    -0.73900
O38         O  0.43838240  0.33326385  0.04279168    -0.74400
O39         O  0.43939996  0.33127777  0.45885759    -0.74300
O40         O  0.42857952  0.37494608  0.43144951    -0.74100
C41         C  0.44384235  0.45223066  0.50001262     0.77700
C42         C  0.29940304  0.41330618  0.06653212     0.78200
C43         C  0.30095343  0.41111799  0.43469443     0.77200
C44         C  0.30917655  0.30868327  0.50171820     0.77500
C45         C  0.44420551  0.35130797  0.06773535     0.78700
C46         C  0.44467934  0.34792766  0.43310363     0.77700
Zn47       Zn  0.39097336  0.09524697  0.28800989     1.49700
Zn48       Zn  0.39726647  0.09572211  0.20865258     1.49400
Zn49       Zn  0.31153195  0.12097698  0.24489410     1.49100
Zn50       Zn  0.40245575  0.16012083  0.25036967     1.49500
O51         O  0.37591730  0.11823679  0.24798238    -1.83500
O52         O  0.42934927  0.05823169  0.27681422    -0.74200
O53         O  0.34725238  0.08075559  0.17801555    -0.74000
O54         O  0.28192328  0.10344448  0.28537163    -0.73500
O55         O  0.43804019  0.06058855  0.22174457    -0.74200
O56         O  0.33675708  0.08247890  0.31418598    -0.73800
O57         O  0.28828262  0.10029106  0.20377164    -0.74400
O58         O  0.35338123  0.19251035  0.25097653    -0.73800
O59         O  0.43214358  0.12466352  0.18077072    -0.74500
O60         O  0.29191288  0.16498422  0.24239767    -0.73900
O61         O  0.44120994  0.16839887  0.20948518    -0.74400
O62         O  0.43872058  0.16624871  0.29281956    -0.74300
O63         O  0.42513215  0.12253600  0.31956599    -0.74100
C64         C  0.44645348  0.04816829  0.24971340     0.77700
C65         C  0.30546861  0.08591994  0.17916277     0.78200
C66         C  0.29572862  0.08915287  0.31090038     0.77200
C67         C  0.31143246  0.19074791  0.24640575     0.77500
C68         C  0.44753249  0.15186394  0.18345667     0.78700
C69         C  0.44234923  0.14930703  0.31845807     0.77700
Zn70       Zn  0.14660368  0.34562936  0.28902375     1.49700
Zn71       Zn  0.06308254  0.37170444  0.25150550     1.49400
Zn72       Zn  0.15378610  0.41150249  0.25115863     1.50700
Zn73       Zn  0.14601723  0.34713386  0.21028641     1.49500
O74         O  0.12764736  0.36927601  0.25050772    -1.83500
O75         O  0.09529755  0.33234269  0.31863275    -0.74200
O76         O  0.04321208  0.41578582  0.25288375    -0.74000
O77         O  0.18992398  0.41861464  0.29342018    -0.73500
O78         O  0.03720920  0.35218045  0.29254699    -0.74200
O79         O  0.18158171  0.37334574  0.31837176    -0.73800
O80         O  0.10484192  0.44394055  0.25066863    -0.74400
O81         O  0.18130844  0.37557508  0.18191152    -0.73800
O82         O  0.03675108  0.35365936  0.20968911    -0.74500
O83         O  0.19184672  0.41939298  0.21008228    -0.73900
O84         O  0.09425986  0.33542056  0.18103052    -0.74400
O85         O  0.18345530  0.30958103  0.22051587    -0.74300
O86         O  0.18560738  0.30934518  0.27588454    -0.74100
C87         C  0.05378498  0.33821605  0.31740971     0.77700
C88         C  0.06252773  0.44185350  0.25188186     0.78200
C89         C  0.19593742  0.40088914  0.31816006     0.77200
C90         C  0.19699510  0.40274231  0.18404144     0.77500
C91         C  0.05281120  0.34098470  0.18352967     0.78700
C92         C  0.19690385  0.29788409  0.24773083     0.77700
C93         C  0.47670506  0.02138276  0.25082404    -0.04900
C94         C  0.01810547  0.02234060  0.23451049    -0.32300
C95         C  0.04732427  0.99710614  0.23563541     0.36900
C96         C  0.03450084  0.46998096  0.25223502    -0.05200
C97         C  0.49301518  0.46920530  0.26849704    -0.32200
C98         C  0.46451430  0.49468235  0.26818971     0.36900
H99         H  0.02800548  0.04284119  0.22118076     0.17200
O100        O  0.08733761  0.99873202  0.21921153    -0.59700
H101        H  0.48255337  0.44869724  0.28157513     0.17200
O102        O  0.42432059  0.49300545  0.28436879    -0.59800
H103        H  0.40307219  0.48508367  0.26745198     0.44200
H104        H  0.10804764  0.00876505  0.23527123     0.44200
C105        C  0.28413713  0.21901498  0.24593973    -0.04900
C106        C  0.25142473  0.22240249  0.22130350    -0.32300
C107        C  0.22324194  0.24812112  0.22129574     0.36900
C108        C  0.22677444  0.27067984  0.24670297    -0.05200
C109        C  0.25942983  0.26712879  0.27145917    -0.32200
C110        C  0.28841609  0.24179939  0.27090157     0.36900
H111        H  0.24768876  0.20498632  0.20196874     0.17200
O112        O  0.19179556  0.25062403  0.19671276    -0.59700
H113        H  0.26275320  0.28419339  0.29118774     0.17200
O114        O  0.31918708  0.23867170  0.29586413    -0.59800
H115        H  0.34554808  0.25054853  0.28837556     0.44200
H116        H  0.16529375  0.23958330  0.20526026     0.44200
C117        C  0.46977414  0.33657597  0.40382517    -0.04900
C118        C  0.01439916  0.32764354  0.40689251    -0.32300
C119        C  0.04191018  0.32536331  0.37854477     0.36900
C120        C  0.02445390  0.33168212  0.34654189    -0.05200
C121        C  0.47846495  0.33708227  0.34358145    -0.32200
C122        C  0.45141368  0.33989389  0.37183224     0.36900
H123        H  0.02888662  0.32490426  0.43140318     0.17200
O124        O  0.08623174  0.31885492  0.38270688    -0.59700
H125        H  0.46376143  0.34127873  0.31940647     0.17200
O126        O  0.40717633  0.34701900  0.36804654    -0.59800
H127        H  0.40634672  0.36949049  0.36386214     0.44200
H128        H  0.09947207  0.33796078  0.39218735     0.44200
C129        C  0.46896006  0.34125159  0.09732882    -0.04900
C130        C  0.01214371  0.32930849  0.09440154    -0.32300
C131        C  0.03944428  0.32680640  0.12267190     0.36900
C132        C  0.02299069  0.33570679  0.15447534    -0.05200
C133        C  0.47819063  0.34470781  0.15732896    -0.32200
C134        C  0.45154072  0.34781841  0.12918349     0.36900
H135        H  0.02586168  0.32412869  0.06998781     0.17200
O136        O  0.08264925  0.31719701  0.11858095    -0.59700
H137        H  0.46432411  0.35141182  0.18126540     0.17200
O138        O  0.40917286  0.35921684  0.13289868    -0.59800
H139        H  0.38964913  0.34083625  0.13358447     0.44200
H140        H  0.09923906  0.33568353  0.11111470     0.44200
C141        C  0.21904863  0.41184794  0.34823399    -0.04900
C142        C  0.26178392  0.42461449  0.34620605    -0.32300
C143        C  0.28809982  0.42758281  0.37493444     0.36900
C144        C  0.27132762  0.41774882  0.40609070    -0.05200
C145        C  0.22651036  0.40873736  0.40825858    -0.32200
C146        C  0.20075608  0.40525942  0.37964548     0.36900
H147        H  0.27602330  0.43000554  0.32212249     0.17200
O148        O  0.33117462  0.43760820  0.37168278    -0.59700
H149        H  0.21219223  0.40186261  0.43185362     0.17200
O150        O  0.15825020  0.39393447  0.38241206    -0.59800
H151        H  0.16190576  0.37142036  0.38560699     0.44200
H152        H  0.32960210  0.46029339  0.37447213     0.44200
C153        C  0.26992626  0.42042141  0.09537775    -0.04900
C154        C  0.28886427  0.42834127  0.12646554    -0.32300
C155        C  0.26408317  0.42570401  0.15599543     0.36900
C156        C  0.22015351  0.41468342  0.15454599    -0.05200
C157        C  0.19970713  0.41054489  0.12347808    -0.32200
C158        C  0.22397661  0.41361131  0.09400608     0.36900
H159        H  0.32385827  0.43417984  0.12826150     0.17200
O160        O  0.28451702  0.43065364  0.18610446    -0.59700
H161        H  0.16531595  0.40302462  0.12209442     0.17200
O162        O  0.20293680  0.40823233  0.06416266    -0.59800
H163        H  0.19927030  0.38555161  0.06257624     0.44200
H164        H  0.27893188  0.45265063  0.19152213     0.44200
C165        C  0.46713097  0.16026250  0.34796604    -0.04900
C166        C  0.44713036  0.15815511  0.37946881    -0.32300
C167        C  0.47239925  0.16169168  0.40856697     0.36900
C168        C  0.01878345  0.16671611  0.40636778    -0.05200
C169        C  0.03768659  0.17195960  0.37474322    -0.32200
C170        C  0.01210916  0.16891411  0.34568288     0.36900
H171        H  0.41213050  0.15234257  0.38151758     0.17200
O172        O  0.45170428  0.15915261  0.43895368    -0.59700
H173        H  0.07311981  0.17604477  0.37223958     0.17200
O174        O  0.03252290  0.17112744  0.31520333    -0.59800
H175        H  0.02874549  0.19291514  0.30865484     0.44200
H176        H  0.44571990  0.13687064  0.44171614     0.44200
C177        C  0.47243580  0.16373495  0.15474897    -0.04900
C178        C  0.45250910  0.16144404  0.12330572    -0.32300
C179        C  0.47799478  0.16352741  0.09428027     0.36900
C180        C  0.02460263  0.16757229  0.09645568    -0.05200
C181        C  0.04361698  0.17331615  0.12803209    -0.32200
C182        C  0.01771244  0.17155278  0.15711126     0.36900
H183        H  0.41737720  0.15598311  0.12125078     0.17200
O184        O  0.45722822  0.15998690  0.06402962    -0.59700
H185        H  0.07918749  0.17679954  0.13047955     0.17200
O186        O  0.03792083  0.17408352  0.18762971    -0.59800
H187        H  0.03429296  0.19600128  0.19427243     0.44200
H188        H  0.45108478  0.13759581  0.06175777     0.44200
C189        C  0.21368440  0.08832902  0.39787031    -0.04900
C190        C  0.19533642  0.09659413  0.36711142    -0.32300
C191        C  0.21992947  0.09367906  0.33771186     0.36900
C192        C  0.26443585  0.08317108  0.33886745    -0.05200
C193        C  0.28093070  0.07178944  0.36925373    -0.32200
C194        C  0.25566236  0.07408615  0.39861426     0.36900
H195        H  0.16247042  0.10688172  0.36609262     0.17200
O196        O  0.20121963  0.10364392  0.30857324    -0.59700
H197        H  0.31467265  0.06311306  0.37085580     0.17200
O198        O  0.27422777  0.06546822  0.42829451    -0.59800
H199        H  0.26740314  0.04321634  0.43029718     0.44200
H200        H  0.18779952  0.08498864  0.29824734     0.44200
C201        C  0.27655709  0.07832870  0.15006667    -0.04900
C202        C  0.29566387  0.07346077  0.11831322    -0.32300
C203        C  0.26973850  0.07593566  0.08927690     0.36900
C204        C  0.22424271  0.08326561  0.09188095    -0.05200
C205        C  0.20431307  0.08447594  0.12344499    -0.32200
C206        C  0.22984267  0.08179477  0.15237069     0.36900
H207        H  0.33129524  0.07030732  0.11576507     0.17200
O208        O  0.28982644  0.07365990  0.05862726    -0.59700
H209        H  0.16905425  0.08945408  0.12574799     0.17200
O210        O  0.20898648  0.08410697  0.18277191    -0.59800
H211        H  0.20157781  0.10625815  0.18565222     0.44200
H212        H  0.30049887  0.09472916  0.05364068     0.44200
C213        C  0.03285926  0.02984113  0.50039018    -0.04900
C214        C  0.49850538  0.02799909  0.02402821    -0.32300
C215        C  0.46951685  0.00279442  0.02431896     0.36900
C216        C  0.47398448  0.47915608  0.50020067    -0.05200
C217        C  0.00821259  0.48112907  0.47636771    -0.32200
C218        C  0.03800034  0.50600426  0.47668582     0.36900
H219        H  0.99412437  0.04623851  0.04238530     0.17200
O220        O  0.43649119  0.00178381  0.04795454    -0.59700
H221        H  0.51223419  0.46314333  0.45768624     0.17200
O222        O  0.07053058  0.50759309  0.45272975    -0.59800
H223        H  0.09553817  0.49504851  0.46138974     0.44200
H224        H  0.41058625  0.01218573  0.03771213     0.44200
C225        C  0.28164110  0.28045719  0.50218914    -0.04900
C226        C  0.28679587  0.25800466  0.47711051    -0.32300
C227        C  0.25860845  0.23221056  0.47574023     0.36900
C228        C  0.22576041  0.22794204  0.50049683    -0.05200
C229        C  0.22147339  0.25010478  0.02604764    -0.32200
C230        C  0.24841076  0.27649288  0.02659489     0.36900
H231        H  0.31196101  0.26089838  0.45800391     0.17200
O232        O  0.26440122  0.21083199  0.45070805    -0.59700
H233        H  0.19646686  0.24730605  0.04528764     0.17200
O234        O  0.24288960  0.29788626  0.05165562    -0.59800
H235        H  0.21803885  0.31123139  0.04423244     0.44200
H236        H  0.24782612  0.21905947  0.43142409     0.44200
Zn237      Zn  0.06153240  0.12755421  0.50073400     1.49700
Zn238      Zn  0.14275095  0.15350576  0.96026208     1.49400
Zn239      Zn  0.14651337  0.15149737  0.53933862     1.49100
Zn240      Zn  0.15240865  0.08759332  0.99682016     1.49500
O241        O  0.12616965  0.12972316  0.49935460    -1.83500
O242        O  0.03342409  0.14569810  0.95990474    -0.74200
O243        O  0.18287393  0.18947546  0.97231222    -0.74000
O244        O  0.09572529  0.16437785  0.56968539    -0.73500
O245        O  0.08971413  0.16742932  0.93323387    -0.74200
O246        O  0.03684670  0.14753096  0.54184148    -0.73800
O247        O  0.18398772  0.18884314  0.52772449    -0.74400
O248        O  0.19205094  0.07905457  0.53734076    -0.73800
O249        O  0.17546269  0.12610526  0.92870265    -0.74500
O250        O  0.18311822  0.12254215  0.56656321    -0.73900
O251        O  0.18721975  0.08125805  0.95361376    -0.74400
O252        O  0.10298562  0.05544469  0.99657885    -0.74300
O253        O  0.04161611  0.08371833  0.50227907    -0.74100
C254        C  0.04855552  0.16056774  0.93515309     0.77700
C255        C  0.19600506  0.20063964  0.00012062     0.78200
C256        C  0.05383106  0.16031222  0.56748035     0.77200
C257        C  0.19879417  0.09540678  0.56346143     0.77500
C258        C  0.19105780  0.09887581  0.92851848     0.78700
C259        C  0.06083907  0.05771908  0.49966084     0.77700
Zn260      Zn  0.39396273  0.40321818  0.96096928     1.49700
Zn261      Zn  0.39221812  0.40518986  0.53952886     1.49400
Zn262      Zn  0.30998513  0.37867620  0.00104582     1.49100
Zn263      Zn  0.40111812  0.33910495  0.00054805     1.49500
O264        O  0.37458138  0.38110436  0.00050574    -1.83500
O265        O  0.43350156  0.43947557  0.97237058    -0.74200
O266        O  0.34093205  0.41865345  0.56863120    -0.74000
O267        O  0.28469878  0.39715143  0.95970626    -0.73500
O268        O  0.42929879  0.44200943  0.52758826    -0.74200
O269        O  0.34242747  0.41680223  0.93272492    -0.73800
O270        O  0.28340687  0.39911014  0.54140108    -0.74400
O271        O  0.35155243  0.30664989  0.00022364    -0.73800
O272        O  0.42843469  0.37847483  0.56854305    -0.74500
O273        O  0.28952855  0.33464532  0.00261364    -0.73900
O274        O  0.43838402  0.33326227  0.54279089    -0.74400
O275        O  0.43940129  0.33128093  0.95885815    -0.74300
O276        O  0.42858182  0.37494953  0.93145041    -0.74100
C277        C  0.44384154  0.45223427  0.00001292     0.77700
C278        C  0.29940234  0.41330556  0.56653122     0.78200
C279        C  0.30095554  0.41112098  0.93469271     0.77200
C280        C  0.30917561  0.30868691  0.00171457     0.77500
C281        C  0.44420557  0.35130601  0.56773504     0.78700
C282        C  0.44468141  0.34793110  0.93310450     0.77700
Zn283      Zn  0.39097617  0.09525246  0.78800907     1.49700
Zn284      Zn  0.39726761  0.09572685  0.70865186     1.49400
Zn285      Zn  0.31153464  0.12098254  0.74489399     1.49100
Zn286      Zn  0.40245756  0.16012621  0.75036873     1.49500
O287        O  0.37591961  0.11824207  0.74798171    -1.83500
O288        O  0.42935311  0.05823768  0.77681342    -0.74200
O289        O  0.34725265  0.08075846  0.67801646    -0.74000
O290        O  0.28192691  0.10345093  0.78537191    -0.73500
O291        O  0.43804330  0.06059410  0.72174371    -0.74200
O292        O  0.33676025  0.08248381  0.81418537    -0.73800
O293        O  0.28828440  0.10029535  0.70377303    -0.74400
O294        O  0.35338323  0.19251584  0.75097543    -0.73800
O295        O  0.43214211  0.12466870  0.68076876    -0.74500
O296        O  0.29191527  0.16498947  0.74239635    -0.73900
O297        O  0.44121022  0.16840372  0.70948369    -0.74400
O298        O  0.43872273  0.16625471  0.79281847    -0.74300
O299        O  0.42513402  0.12254206  0.81956490    -0.74100
C300        C  0.44645720  0.04817414  0.74971261     0.77700
C301        C  0.30546897  0.08592302  0.67916450     0.78200
C302        C  0.29573199  0.08915858  0.81090019     0.77200
C303        C  0.31143457  0.19075322  0.74640434     0.77500
C304        C  0.44753120  0.15186906  0.68345479     0.78700
C305        C  0.44235089  0.14931315  0.81845712     0.77700
Zn306      Zn  0.14660303  0.34563288  0.78902270     1.49700
Zn307      Zn  0.06308128  0.37170821  0.75150441     1.49400
Zn308      Zn  0.15378591  0.41150553  0.75115723     1.50700
Zn309      Zn  0.14601648  0.34713715  0.71028575     1.49500
O310        O  0.12764636  0.36927946  0.75050674    -1.83500
O311        O  0.09529720  0.33234698  0.81863178    -0.74200
O312        O  0.04321174  0.41579003  0.75288215    -0.74000
O313        O  0.18992490  0.41861717  0.79341835    -0.73500
O314        O  0.03720813  0.35218478  0.79254677    -0.74200
O315        O  0.18158207  0.37334871  0.81837080    -0.73800
O316        O  0.10484241  0.44394403  0.75066713    -0.74400
O317        O  0.18130669  0.37557796  0.68190993    -0.73800
O318        O  0.03674975  0.35366258  0.70968778    -0.74500
O319        O  0.19184603  0.41939568  0.71008064    -0.73900
O320        O  0.09425957  0.33542319  0.68103074    -0.74400
O321        O  0.18345489  0.30958470  0.72051488    -0.74300
O322        O  0.18560610  0.30934844  0.77588353    -0.74100
C323        C  0.05378472  0.33822060  0.81740942     0.77700
C324        C  0.06252816  0.44185747  0.75188017     0.78200
C325        C  0.19593863  0.40089187  0.81815838     0.77200
C326        C  0.19699365  0.40274507  0.68403970     0.77500
C327        C  0.05281089  0.34098730  0.68352898     0.78700
C328        C  0.19690309  0.29788762  0.74772981     0.77700
C329        C  0.47670879  0.02138848  0.75082336    -0.04900
C330        C  0.01810668  0.02234436  0.73450640    -0.32300
C331        C  0.04732472  0.99710943  0.73563099     0.36900
C332        C  0.03450219  0.46998533  0.75223321    -0.05200
C333        C  0.49302025  0.46921205  0.76849963    -0.32200
C334        C  0.46452002  0.49468944  0.76819242     0.36900
H335        H  0.02800575  0.04284396  0.72117451     0.17200
O336        O  0.08733597  0.99873350  0.71920400    -0.59700
H337        H  0.48256001  0.44870517  0.78158058     0.17200
O338        O  0.42432878  0.49301426  0.78437515    -0.59800
H339        H  0.40307782  0.48509062  0.76746116     0.44200
H340        H  0.10804861  0.00876695  0.73526150     0.44200
C341        C  0.28413886  0.21902007  0.74593812    -0.04900
C342        C  0.25142565  0.22240679  0.72130235    -0.32300
C343        C  0.22324187  0.24812488  0.72129485     0.36900
C344        C  0.22677425  0.27068379  0.74670188    -0.05200
C345        C  0.25943047  0.26713355  0.77145757    -0.32200
C346        C  0.28841771  0.24180472  0.77089971     0.36900
H347        H  0.24768969  0.20499037  0.70196785     0.17200
O348        O  0.19179477  0.25062713  0.69671233    -0.59700
H349        H  0.26275375  0.28419839  0.79118594     0.17200
O350        O  0.31918945  0.23867774  0.79586185    -0.59800
H351        H  0.34554982  0.25055557  0.78837297     0.44200
H352        H  0.16529314  0.23958537  0.70526040     0.44200
C353        C  0.46977642  0.33657965  0.90382616    -0.04900
C354        C  0.01440262  0.32765024  0.90689349    -0.32300
C355        C  0.04191306  0.32537065  0.87854540     0.36900
C356        C  0.02445501  0.33168703  0.84654245    -0.05200
C357        C  0.47846566  0.33708487  0.84358228    -0.32200
C358        C  0.45141479  0.33989589  0.87183339     0.36900
H359        H  0.02889115  0.32491284  0.93140406     0.17200
O360        O  0.08623568  0.31886543  0.88270717    -0.59700
H361        H  0.46376120  0.34127991  0.81940732     0.17200
O362        O  0.40717665  0.34701882  0.86804813    -0.59800
H363        H  0.40634470  0.36949045  0.86386353     0.44200
H364        H  0.09947266  0.33797134  0.89218998     0.44200
C365        C  0.46896105  0.34124990  0.59732797    -0.04900
C366        C  0.01214786  0.32931265  0.59439975    -0.32300
C367        C  0.03944850  0.32681214  0.62267011     0.36900
C368        C  0.02299189  0.33570809  0.65447413    -0.05200
C369        C  0.47818968  0.34470369  0.65732841    -0.32200
C370        C  0.45153936  0.34781254  0.62918285     0.36900
H371        H  0.02586784  0.32413669  0.56998576     0.17200
O372        O  0.08265648  0.31720941  0.61857853    -0.59700
H373        H  0.46432118  0.35140437  0.68126527     0.17200
O374        O  0.40916842  0.35920541  0.63289818    -0.59800
H375        H  0.38964965  0.34082219  0.63358356     0.44200
H376        H  0.09924084  0.33569909  0.61111520     0.44200
C377        C  0.21905158  0.41185074  0.84823147    -0.04900
C378        C  0.26178988  0.42461216  0.84620233    -0.32300
C379        C  0.28810618  0.42758026  0.87493048     0.36900
C380        C  0.27133129  0.41775142  0.90608793    -0.05200
C381        C  0.22651215  0.40874454  0.90825651    -0.32200
C382        C  0.20075740  0.40526666  0.87964353     0.36900
H383        H  0.27603083  0.42999916  0.82211820     0.17200
O384        O  0.33118369  0.43759975  0.87167756    -0.59700
H385        H  0.21219241  0.40187343  0.93185229     0.17200
O386        O  0.15824925  0.39394606  0.88241093    -0.59800
H387        H  0.16190040  0.37143162  0.88560709     0.44200
H388        H  0.32961729  0.46028527  0.87446380     0.44200
C389        C  0.26992535  0.42042250  0.59537619    -0.04900
C390        C  0.28886326  0.42834269  0.62646389    -0.32300
C391        C  0.26408187  0.42570616  0.65599367     0.36900
C392        C  0.22015201  0.41468600  0.65454419    -0.05200
C393        C  0.19970565  0.41054753  0.62347626    -0.32200
C394        C  0.22397543  0.41361335  0.59400431     0.36900
H395        H  0.32385745  0.43418071  0.62825993     0.17200
O396        O  0.28451568  0.43065580  0.68610271    -0.59700
H397        H  0.16531426  0.40302769  0.62209258     0.17200
O398        O  0.20293570  0.40823481  0.56416078    -0.59800
H399        H  0.19926730  0.38555387  0.56257466     0.44200
H400        H  0.27892961  0.45265260  0.69152075     0.44200
C401        C  0.46713126  0.16026879  0.84796571    -0.04900
C402        C  0.44713093  0.15815799  0.87946826    -0.32300
C403        C  0.47239931  0.16169388  0.90856671     0.36900
C404        C  0.01878324  0.16672115  0.90636810    -0.05200
C405        C  0.03768576  0.17196817  0.87474401    -0.32200
C406        C  0.01210868  0.16892334  0.84568339     0.36900
H407        H  0.41213183  0.15234311  0.88151655     0.17200
O408        O  0.45170453  0.15915114  0.93895307    -0.59700
H409        H  0.07311844  0.17605569  0.87224075     0.17200
O410        O  0.03252210  0.17114034  0.81520405    -0.59800
H411        H  0.02874340  0.19292830  0.80865823     0.44200
H412        H  0.44572309  0.13686839  0.94171348     0.44200
C413        C  0.47243454  0.16374002  0.65474728    -0.04900
C414        C  0.45250693  0.16145161  0.62330413    -0.32300
C415        C  0.47799286  0.16353339  0.59427856     0.36900
C416        C  0.02460133  0.16757415  0.59645409    -0.05200
C417        C  0.04361692  0.17331576  0.62803047    -0.32200
C418        C  0.01771245  0.17155383  0.65710962     0.36900
H419        H  0.41737408  0.15599357  0.62124936     0.17200
O420        O  0.45722585  0.15999560  0.56402776    -0.59700
H421        H  0.07918812  0.17679575  0.63047796     0.17200
O422        O  0.03792183  0.17408115  0.68762796    -0.59800
H423        H  0.03429712  0.19599930  0.69427253     0.44200
H424        H  0.45107727  0.13760506  0.56175547     0.44200
C425        C  0.21368600  0.08833252  0.89786922    -0.04900
C426        C  0.19533878  0.09659855  0.86711039    -0.32300
C427        C  0.21993263  0.09368458  0.83771115     0.36900
C428        C  0.26443898  0.08317652  0.83886696    -0.05200
C429        C  0.28093325  0.07179409  0.86925305    -0.32200
C430        C  0.25566415  0.07408988  0.89861332     0.36900
H431        H  0.16247279  0.10688615  0.86609147     0.17200
O432        O  0.20122349  0.10365057  0.80857272    -0.59700
H433        H  0.31467521  0.06311776  0.87085524     0.17200
O434        O  0.27422894  0.06547135  0.92829356    -0.59800
H435        H  0.26740753  0.04321872  0.93029425     0.44200
H436        H  0.18780487  0.08499592  0.79824549     0.44200
C437        C  0.27655564  0.07833048  0.65006975    -0.04900
C438        C  0.29566060  0.07345740  0.61831657    -0.32300
C439        C  0.26973462  0.07593074  0.58928033     0.36900
C440        C  0.22424007  0.08326455  0.59188428    -0.05200
C441        C  0.20431172  0.08447980  0.62344859    -0.32200
C442        C  0.22984176  0.08180009  0.65237416     0.36900
H443        H  0.33129139  0.07030092  0.61576820     0.17200
O444        O  0.28982113  0.07364969  0.55863059    -0.59700
H445        H  0.16905375  0.08946078  0.62575169     0.17200
O446        O  0.20898669  0.08411737  0.68277541    -0.59800
H447        H  0.20158149  0.10626959  0.68565283     0.44200
H448        H  0.30049848  0.09471744  0.55364135     0.44200
C449        C  0.03285805  0.02984499  0.00038889    -0.04900
C450        C  0.49850605  0.02799515  0.52402888    -0.32300
C451        C  0.46951729  0.00279062  0.52431884     0.36900
C452        C  0.47398324  0.47915992  0.00020042    -0.05200
C453        C  0.00821107  0.48113265  0.97636733    -0.32200
C454        C  0.03799864  0.50600791  0.97668463     0.36900
H455        H  0.99412435  0.04623433  0.54238608     0.17200
O456        O  0.43649047  0.00178019  0.54795352    -0.59700
H457        H  0.51223147  0.46314727  0.95768516     0.17200
O458        O  0.07052832  0.50759651  0.95272816    -0.59800
H459        H  0.09553648  0.49505143  0.96138808     0.44200
H460        H  0.41058680  0.01218357  0.53771101     0.44200
C461        C  0.28163918  0.28046124  0.00218481    -0.04900
C462        C  0.28679685  0.25800708  0.97710816    -0.32300
C463        C  0.25860979  0.23221274  0.97573826     0.36900
C464        C  0.22575953  0.22794558  0.00049352    -0.05200
C465        C  0.22147776  0.25009934  0.52605333    -0.32200
C466        C  0.24841578  0.27648717  0.52660121     0.36900
H467        H  0.31196413  0.26089957  0.95800292     0.17200
O468        O  0.26440521  0.21083254  0.95070803    -0.59700
H469        H  0.19647339  0.24729944  0.54529466     0.17200
O470        O  0.24289814  0.29787871  0.55166424    -0.59800
H471        H  0.21804691  0.31122454  0.54424413     0.44200
H472        H  0.24783228  0.21905881  0.93142237     0.44200
Zn473      Zn  0.06153339  0.62755723  0.00073301     1.49700
Zn474      Zn  0.14274951  0.65350338  0.46026408     1.49400
Zn475      Zn  0.14651457  0.65149980  0.03933847     1.49100
Zn476      Zn  0.15240862  0.58759061  0.49682213     1.49500
O477        O  0.12617034  0.62972588  0.99935405    -1.83500
O478        O  0.03342344  0.64569181  0.45990375    -0.74200
O479        O  0.18287202  0.68947328  0.47231521    -0.74000
O480        O  0.09572612  0.66437937  0.06968648    -0.73500
O481        O  0.08971287  0.66742603  0.43323494    -0.74200
O482        O  0.03684884  0.64753301  0.04184077    -0.73800
O483        O  0.18398857  0.68884612  0.02772344    -0.74400
O484        O  0.19204959  0.57905609  0.03733917    -0.73800
O485        O  0.17546219  0.62610326  0.42870488    -0.74500
O486        O  0.18312005  0.62254368  0.06656229    -0.73900
O487        O  0.18721966  0.58125588  0.45361562    -0.74400
O488        O  0.10298646  0.55544128  0.49658089    -0.74300
O489        O  0.04161614  0.58372172  0.00227811    -0.74100
C490        C  0.04855485  0.66056235  0.43515275     0.77700
C491        C  0.19600442  0.70063636  0.50012381     0.78200
C492        C  0.05383198  0.66031327  0.06748060     0.77200
C493        C  0.19879436  0.59540784  0.06345991     0.77500
C494        C  0.19105746  0.59887386  0.42852047     0.78700
C495        C  0.06083844  0.55772227  0.99965959     0.77700
Zn496      Zn  0.39396147  0.90321562  0.46096786     1.49700
Zn497      Zn  0.39221806  0.90519233  0.03952800     1.49400
Zn498      Zn  0.30998422  0.87867255  0.50104573     1.49100
Zn499      Zn  0.40111755  0.83910232  0.50054650     1.49500
O500        O  0.37458035  0.88110154  0.50050449    -1.83500
O501        O  0.43350110  0.93947305  0.47236936    -0.74200
O502        O  0.34093167  0.91865418  0.06863116    -0.74000
O503        O  0.28469811  0.89714664  0.45970582    -0.73500
O504        O  0.42929819  0.94201269  0.02758819    -0.74200
O505        O  0.34242503  0.91680014  0.43272451    -0.73800
O506        O  0.28340640  0.89911255  0.04139966    -0.74400
O507        O  0.35155266  0.80664677  0.50022435    -0.73800
O508        O  0.42843503  0.87847684  0.06854148    -0.74500
O509        O  0.28952813  0.83464140  0.50261614    -0.73900
O510        O  0.43838147  0.83326365  0.04279016    -0.74400
O511        O  0.43939948  0.83127797  0.45885596    -0.74300
O512        O  0.42858011  0.87494663  0.43144829    -0.74100
C513        C  0.44384191  0.95223097  0.50001198     0.77700
C514        C  0.29940193  0.91330644  0.06653085     0.78200
C515        C  0.30095347  0.91111750  0.43469262     0.77200
C516        C  0.30917593  0.80868323  0.50171698     0.77500
C517        C  0.44420418  0.85130752  0.06773409     0.78700
C518        C  0.44467953  0.84792808  0.43310225     0.77700
Zn519      Zn  0.39097301  0.59524668  0.28800916     1.49700
Zn520      Zn  0.39726578  0.59572118  0.20865188     1.49400
Zn521      Zn  0.31153210  0.62097675  0.24489350     1.49100
Zn522      Zn  0.40245617  0.66012014  0.25036857     1.49500
O523        O  0.37591722  0.61823626  0.24798154    -1.83500
O524        O  0.42934841  0.55823136  0.27681384    -0.74200
O525        O  0.34725120  0.58075400  0.17801543    -0.74000
O526        O  0.28192370  0.60344550  0.28537167    -0.73500
O527        O  0.43803997  0.56058798  0.22174423    -0.74200
O528        O  0.33675707  0.58247927  0.31418588    -0.73800
O529        O  0.28828206  0.60029001  0.20377182    -0.74400
O530        O  0.35338206  0.69250994  0.25097553    -0.73800
O531        O  0.43214212  0.62466266  0.18076954    -0.74500
O532        O  0.29191368  0.66498399  0.24239618    -0.73900
O533        O  0.44120957  0.66839800  0.20948382    -0.74400
O534        O  0.43872171  0.66624794  0.29281807    -0.74300
O535        O  0.42513244  0.62253552  0.31956477    -0.74100
C536        C  0.44645298  0.54816790  0.24971321     0.77700
C537        C  0.30546744  0.58591841  0.17916303     0.78200
C538        C  0.29572884  0.58915399  0.31090052     0.77200
C539        C  0.31143336  0.69074762  0.24640437     0.77500
C540        C  0.44753121  0.65186307  0.18345521     0.78700
C541        C  0.44235009  0.64930634  0.31845665     0.77700
Zn542      Zn  0.14660339  0.84562808  0.28902209     1.49700
Zn543      Zn  0.06308199  0.87170322  0.25150433     1.49400
Zn544      Zn  0.15378503  0.91150155  0.25115734     1.50700
Zn545      Zn  0.14601694  0.84713306  0.21028470     1.49500
O546        O  0.12764680  0.86927491  0.25050624    -1.83500
O547        O  0.09529758  0.83234112  0.31863132    -0.74200
O548        O  0.04321085  0.91578470  0.25288231    -0.74000
O549        O  0.18992292  0.91861347  0.29341878    -0.73500
O550        O  0.03720900  0.85217898  0.29254593    -0.74200
O551        O  0.18158162  0.87334432  0.31837004    -0.73800
O552        O  0.10484060  0.94393949  0.25066744    -0.74400
O553        O  0.18130809  0.87557479  0.18191025    -0.73800
O554        O  0.03675089  0.85365781  0.20968810    -0.74500
O555        O  0.19184587  0.91939260  0.21008124    -0.73900
O556        O  0.09425939  0.83541968  0.18102865    -0.74400
O557        O  0.18345559  0.80958034  0.22051392    -0.74300
O558        O  0.18560734  0.80934419  0.27588262    -0.74100
C559        C  0.05378500  0.83821446  0.31740850     0.77700
C560        C  0.06252641  0.94185245  0.25188049     0.78200
C561        C  0.19593703  0.90088779  0.31815842     0.77200
C562        C  0.19699451  0.90274209  0.18404033     0.77500
C563        C  0.05281065  0.84098349  0.18352836     0.78700
C564        C  0.19690414  0.79788335  0.24772887     0.77700
C565        C  0.47670495  0.52138262  0.25082438    -0.04900
C566        C  0.01810495  0.52234049  0.23450947    -0.32300
C567        C  0.04732439  0.49710644  0.23563510     0.36900
C568        C  0.03449953  0.96998004  0.25223375    -0.05200
C569        C  0.49301313  0.96920420  0.26849379    -0.32200
C570        C  0.46451282  0.99468160  0.26818716     0.36900
H571        H  0.02800402  0.54284062  0.22117855     0.17200
O572        O  0.08733710  0.49873202  0.21921027    -0.59700
H573        H  0.48255008  0.94869556  0.28157030     0.17200
O574        O  0.42431807  0.99300425  0.28436476    -0.59800
H575        H  0.40307070  0.98508396  0.26744692     0.44200
H576        H  0.10804736  0.50876549  0.23526886     0.44200
C577        C  0.28413815  0.71901473  0.24593803    -0.04900
C578        C  0.25142457  0.72240144  0.22130254    -0.32300
C579        C  0.22324161  0.74811994  0.22129463     0.36900
C580        C  0.22677512  0.77067937  0.24670101    -0.05200
C581        C  0.25943173  0.76712917  0.27145646    -0.32200
C582        C  0.28841818  0.74179988  0.27089898     0.36900
H583        H  0.24768770  0.70498467  0.20196851     0.17200
O584        O  0.19179401  0.75062204  0.19671243    -0.59700
H585        H  0.26275582  0.78419434  0.29118439     0.17200
O586        O  0.31919039  0.73867306  0.29586086    -0.59800
H587        H  0.34555065  0.75054943  0.28837127     0.44200
H588        H  0.16529249  0.73958105  0.20526108     0.44200
C589        C  0.46977446  0.83657636  0.40382380    -0.04900
C590        C  0.01440000  0.82764264  0.40689159    -0.32300
C591        C  0.04191077  0.82536205  0.37854373     0.36900
C592        C  0.02445417  0.83168044  0.34654083    -0.05200
C593        C  0.47846509  0.83708201  0.34358003    -0.32200
C594        C  0.45141392  0.83989398  0.37183087     0.36900
H595        H  0.02888771  0.82490380  0.43140223     0.17200
O596        O  0.08623239  0.81885380  0.38270571    -0.59700
H597        H  0.46376150  0.84127825  0.31940504     0.17200
O598        O  0.40717658  0.84701907  0.36804513    -0.59800
H599        H  0.40634697  0.86949053  0.36386066     0.44200
H600        H  0.09947275  0.83795980  0.39218592     0.44200
C601        C  0.46895849  0.84125094  0.09732762    -0.04900
C602        C  0.01214110  0.82930599  0.09440084    -0.32300
C603        C  0.03944168  0.82680341  0.12267118     0.36900
C604        C  0.02298946  0.83570587  0.15447433    -0.05200
C605        C  0.47819004  0.84470804  0.15732760    -0.32200
C606        C  0.45153995  0.84781885  0.12918229     0.36900
H607        H  0.02585817  0.82412441  0.06998728     0.17200
O608        O  0.08264542  0.81719119  0.11858048    -0.59700
H609        H  0.46432421  0.85141300  0.18126397     0.17200
O610        O  0.40917278  0.85921850  0.13289763    -0.59800
H611        H  0.38964783  0.84083863  0.13358211     0.44200
H612        H  0.09923703  0.83567576  0.11111238     0.44200
C613        C  0.21904868  0.91184651  0.34823212    -0.04900
C614        C  0.26178431  0.92461243  0.34620384    -0.32300
C615        C  0.28810038  0.92758089  0.37493212     0.36900
C616        C  0.27132789  0.91774783  0.40608865    -0.05200
C617        C  0.22651049  0.90873675  0.40825674    -0.32200
C618        C  0.20075613  0.90525850  0.37964372     0.36900
H619        H  0.27602375  0.93000284  0.32212013     0.17200
O620        O  0.33117562  0.93760537  0.37168013    -0.59700
H621        H  0.21219224  0.90186256  0.43185194     0.17200
O622        O  0.15825014  0.89393391  0.38241050    -0.59800
H623        H  0.16190564  0.87141915  0.38560577     0.44200
H624        H  0.32960331  0.96029073  0.37446401     0.44200
C625        C  0.26992496  0.92042175  0.09537643    -0.04900
C626        C  0.28886275  0.92834233  0.12646411    -0.32300
C627        C  0.26408181  0.92570494  0.15599411     0.36900
C628        C  0.22015257  0.91468351  0.15454484    -0.05200
C629        C  0.19970623  0.91054447  0.12347700    -0.32200
C630        C  0.22397551  0.91361096  0.09400493     0.36900
H631        H  0.32385654  0.93418157  0.12825992     0.17200
O632        O  0.28451555  0.93065528  0.18610306    -0.59700
H633        H  0.16531531  0.90302363  0.12209346     0.17200
O634        O  0.20293576  0.90823123  0.06416163    -0.59800
H635        H  0.19926970  0.88555060  0.06257569     0.44200
H636        H  0.27893136  0.95265235  0.19151971     0.44200
C637        C  0.46713183  0.66026171  0.34796463    -0.04900
C638        C  0.44713086  0.65815453  0.37946728    -0.32300
C639        C  0.47239945  0.66169106  0.40856558     0.36900
C640        C  0.01878352  0.66671453  0.40636698    -0.05200
C641        C  0.03768705  0.67195800  0.37474254    -0.32200
C642        C  0.01210990  0.66891264  0.34568205     0.36900
H643        H  0.41213089  0.65234219  0.38151587     0.17200
O644        O  0.45170414  0.65915221  0.43895216    -0.59700
H645        H  0.07312029  0.67604317  0.37223914     0.17200
O646        O  0.03252396  0.67112609  0.31520259    -0.59800
H647        H  0.02874552  0.69291308  0.30865378     0.44200
H648        H  0.44571936  0.63687022  0.44171464     0.44200
C649        C  0.47243335  0.66373416  0.15474698    -0.04900
C650        C  0.45250710  0.66144046  0.12330381    -0.32300
C651        C  0.47799252  0.66352440  0.09427835     0.36900
C652        C  0.02460046  0.66757305  0.09645411    -0.05200
C653        C  0.04361396  0.67331973  0.12803026    -0.32200
C654        C  0.01770948  0.67155615  0.15710947     0.36900
H655        H  0.41737600  0.65597698  0.12124902     0.17200
O656        O  0.45722643  0.65998099  0.06402789    -0.59700
H657        H  0.07918398  0.67680557  0.13047760     0.17200
O658        O  0.03791726  0.67408993  0.18762784    -0.59800
H659        H  0.03428799  0.69600871  0.19426850     0.44200
H660        H  0.45108624  0.63758945  0.06175727     0.44200
C661        C  0.21368508  0.58833069  0.39787092    -0.04900
C662        C  0.19533760  0.59659717  0.36711231    -0.32300
C663        C  0.21993048  0.59368241  0.33771271     0.36900
C664        C  0.26443620  0.58317303  0.33886785    -0.05200
C665        C  0.28093068  0.57179042  0.36925383    -0.32200
C666        C  0.25566251  0.57408704  0.39861447     0.36900
H667        H  0.16247208  0.60688554  0.36609380     0.17200
O668        O  0.20122113  0.60364875  0.30857448    -0.59700
H669        H  0.31467217  0.56311315  0.37085556     0.17200
O670        O  0.27422757  0.56546805  0.42829447    -0.59800
H671        H  0.26740393  0.54321598  0.43029578     0.44200
H672        H  0.18779967  0.58499487  0.29824836     0.44200
C673        C  0.27655514  0.57832680  0.15006744    -0.04900
C674        C  0.29566113  0.57345739  0.11831398    -0.32300
C675        C  0.26973548  0.57593241  0.08927779     0.36900
C676        C  0.22424033  0.58326427  0.09188201    -0.05200
C677        C  0.20431115  0.58447573  0.12344618    -0.32200
C678        C  0.22984093  0.58179417  0.15237174     0.36900
H679        H  0.33129225  0.57030267  0.11576563     0.17200
O680        O  0.28982272  0.57365493  0.05862804    -0.59700
H681        H  0.16905269  0.58945504  0.12574936     0.17200
O682        O  0.20898523  0.58410731  0.18277307    -0.59800
H683        H  0.20157738  0.60625882  0.18565297     0.44200
H684        H  0.30049653  0.59472380  0.05364046     0.44200
C685        C  0.03285939  0.52984065  0.50039117    -0.04900
C686        C  0.49849968  0.52800172  0.02402422    -0.32300
C687        C  0.46951144  0.50279692  0.02431503     0.36900
C688        C  0.47398431  0.97915644  0.50020035    -0.05200
C689        C  0.00820887  0.98113161  0.47636394    -0.32200
C690        C  0.03799660  0.00600682  0.47668201     0.36900
H691        H  0.99411757  0.54624168  0.04238102     0.17200
O692        O  0.43648052  0.50178890  0.04794666    -0.59700
H693        H  0.51222510  0.96314871  0.45767916     0.17200
O694        O  0.07052308  0.00759784  0.45272330    -0.59800
H695        H  0.09553251  0.99505251  0.46138002     0.44200
H696        H  0.41057706  0.51218809  0.03769893     0.44200
C697        C  0.28164047  0.78045712  0.50218840    -0.04900
C698        C  0.28679451  0.75800451  0.47710976    -0.32300
C699        C  0.25860721  0.73221032  0.47574013     0.36900
C700        C  0.22576001  0.72794179  0.50049735    -0.05200
C701        C  0.22147391  0.75010454  0.02604823    -0.32200
C702        C  0.24841111  0.77649275  0.02659487     0.36900
H703        H  0.31195901  0.76089821  0.45800270     0.17200
O704        O  0.26439939  0.71083161  0.45070803    -0.59700
H705        H  0.19646787  0.74730586  0.04528859     0.17200
O706        O  0.24289049  0.79788625  0.05165555    -0.59800
H707        H  0.21804008  0.81123153  0.04423246     0.44200
H708        H  0.24782326  0.71905905  0.43142398     0.44200
Zn709      Zn  0.06153202  0.62755375  0.50073385     1.49700
Zn710      Zn  0.14275050  0.65350587  0.96026282     1.49400
Zn711      Zn  0.14651261  0.65149707  0.53933921     1.49100
Zn712      Zn  0.15240852  0.58759312  0.99682039     1.49500
O713        O  0.12616912  0.62972302  0.49935501    -1.83500
O714        O  0.03342418  0.64569681  0.95990396    -0.74200
O715        O  0.18287289  0.68947562  0.97231320    -0.74000
O716        O  0.09572401  0.66437820  0.56968516    -0.73500
O717        O  0.08971409  0.66742896  0.93323390    -0.74200
O718        O  0.03684598  0.64753129  0.54184058    -0.73800
O719        O  0.18398796  0.68884260  0.52772534    -0.74400
O720        O  0.19205015  0.57905427  0.53734118    -0.73800
O721        O  0.17546318  0.62610588  0.92870382    -0.74500
O722        O  0.18311613  0.62254133  0.56656432    -0.73900
O723        O  0.18722026  0.58125831  0.95361417    -0.74400
O724        O  0.10298563  0.55544437  0.99657892    -0.74300
O725        O  0.04161616  0.58371790  0.50227984    -0.74100
C726        C  0.04855567  0.66056671  0.93515254     0.77700
C727        C  0.19600487  0.70063938  0.00012155     0.78200
C728        C  0.05382980  0.66031277  0.56747952     0.77200
C729        C  0.19879236  0.59540602  0.56346233     0.77500
C730        C  0.19105853  0.59887653  0.92851927     0.78700
C731        C  0.06083917  0.55771867  0.49966144     0.77700
Zn732      Zn  0.39396240  0.90321867  0.96096825     1.49700
Zn733      Zn  0.39221751  0.90518968  0.53952770     1.49400
Zn734      Zn  0.30998443  0.87867625  0.00104458     1.49100
Zn735      Zn  0.40111747  0.83910507  0.00054643     1.49500
O736        O  0.37458072  0.88110451  0.00050448    -1.83500
O737        O  0.43350048  0.93947643  0.97237006    -0.74200
O738        O  0.34093135  0.91865331  0.56863003    -0.74000
O739        O  0.28469855  0.89715102  0.95970458    -0.73500
O740        O  0.42929877  0.94200913  0.52758749    -0.74200
O741        O  0.34242723  0.91680224  0.93272354    -0.73800
O742        O  0.28340601  0.89911064  0.54139958    -0.74400
O743        O  0.35155183  0.80664998  0.00022199    -0.73800
O744        O  0.42843363  0.87847436  0.56854177    -0.74500
O745        O  0.28952791  0.83464529  0.00261279    -0.73900
O746        O  0.43838310  0.83326198  0.54278929    -0.74400
O747        O  0.43940084  0.83128129  0.95885648    -0.74300
O748        O  0.42858237  0.87495035  0.93144937    -0.74100
C749        C  0.44384104  0.95223458  0.00001259     0.77700
C750        C  0.29940155  0.91330581  0.56652989     0.78200
C751        C  0.30095539  0.91112055  0.93469105     0.77200
C752        C  0.30917506  0.80868691  0.00171345     0.77500
C753        C  0.44420449  0.85130554  0.56773361     0.78700
C754        C  0.44468163  0.84793179  0.93310315     0.77700
Zn755      Zn  0.39097610  0.59525212  0.78800839     1.49700
Zn756      Zn  0.39726686  0.59572592  0.70865119     1.49400
Zn757      Zn  0.31153481  0.62098231  0.74489359     1.49100
Zn758      Zn  0.40245796  0.66012547  0.75036769     1.49500
O759        O  0.37591957  0.61824149  0.74798096    -1.83500
O760        O  0.42935239  0.55823727  0.77681290    -0.74200
O761        O  0.34725132  0.58075707  0.67801640    -0.74000
O762        O  0.28192753  0.60345178  0.78537206    -0.73500
O763        O  0.43804284  0.56059340  0.72174319    -0.74200
O764        O  0.33676056  0.58248412  0.81418534    -0.73800
O765        O  0.28828373  0.60029450  0.70377331    -0.74400
O766        O  0.35338408  0.69251536  0.75097465    -0.73800
O767        O  0.43214069  0.62466782  0.68076764    -0.74500
O768        O  0.29191599  0.66498921  0.74239533    -0.73900
O769        O  0.44120973  0.66840285  0.70948238    -0.74400
O770        O  0.43872398  0.66625394  0.79281691    -0.74300
O771        O  0.42513472  0.62254156  0.81956365    -0.74100
C772        C  0.44645662  0.54817361  0.74971221     0.77700
C773        C  0.30546767  0.58592173  0.67916483     0.78200
C774        C  0.29573250  0.58915955  0.81090042     0.77200
C775        C  0.31143546  0.69075290  0.74640335     0.77500
C776        C  0.44752989  0.65186819  0.68345339     0.78700
C777        C  0.44235206  0.64931247  0.81845561     0.77700
Zn778      Zn  0.14660267  0.84563167  0.78902108     1.49700
Zn779      Zn  0.06308080  0.87170716  0.75150313     1.49400
Zn780      Zn  0.15378500  0.91150466  0.75115591     1.50700
Zn781      Zn  0.14601638  0.84713644  0.71028404     1.49500
O782        O  0.12764588  0.86927844  0.75050523    -1.83500
O783        O  0.09529702  0.83234538  0.81863021    -0.74200
O784        O  0.04321065  0.91578907  0.75288067    -0.74000
O785        O  0.18992397  0.91861601  0.79341694    -0.73500
O786        O  0.03720791  0.85218361  0.79254564    -0.74200
O787        O  0.18158168  0.87334740  0.81836920    -0.73800
O788        O  0.10484127  0.94394308  0.75066606    -0.74400
O789        O  0.18130662  0.87557769  0.68190858    -0.73800
O790        O  0.03674970  0.85366123  0.70968658    -0.74500
O791        O  0.19184533  0.91939535  0.71007953    -0.73900
O792        O  0.09425933  0.83542242  0.68102884    -0.74400
O793        O  0.18345530  0.80958406  0.72051310    -0.74300
O794        O  0.18560623  0.80934758  0.77588177    -0.74100
C795        C  0.05378456  0.83821917  0.81740810     0.77700
C796        C  0.06252701  0.94185655  0.75187889     0.78200
C797        C  0.19593810  0.90089059  0.81815680     0.77200
C798        C  0.19699331  0.90274488  0.68403852     0.77500
C799        C  0.05281057  0.84098623  0.68352753     0.78700
C800        C  0.19690354  0.79788698  0.74772804     0.77700
C801        C  0.47670851  0.52138818  0.75082340    -0.04900
C802        C  0.01810563  0.52234391  0.73450470    -0.32300
C803        C  0.04732430  0.49710938  0.73562998     0.36900
C804        C  0.03450109  0.96998456  0.75223211    -0.05200
C805        C  0.49301830  0.96921105  0.76849633    -0.32200
C806        C  0.46451857  0.99468875  0.76818991     0.36900
H807        H  0.02800347  0.54284290  0.72117123     0.17200
O808        O  0.08733452  0.49873291  0.71920152    -0.59700
H809        H  0.48255672  0.94870347  0.78157543     0.17200
O810        O  0.42432611  0.99301295  0.78437092    -0.59800
H811        H  0.40307652  0.98509091  0.76745586     0.44200
H812        H  0.10804792  0.50876718  0.73525766     0.44200
C813        C  0.28413994  0.71901981  0.74593678    -0.04900
C814        C  0.25142589  0.72240590  0.72130153    -0.32300
C815        C  0.22324197  0.74812388  0.72129383     0.36900
C816        C  0.22677509  0.77068338  0.74670014    -0.05200
C817        C  0.25943227  0.76713387  0.77145527    -0.32200
C818        C  0.28841963  0.74180512  0.77089758     0.36900
H819        H  0.24768928  0.70498899  0.70196762     0.17200
O820        O  0.19179382  0.75062538  0.69671195    -0.59700
H821        H  0.26275608  0.78419918  0.79118310     0.17200
O822        O  0.31919230  0.73867887  0.79585923    -0.59800
H823        H  0.34555208  0.75055592  0.78836943     0.44200
H824        H  0.16529287  0.73958367  0.70526085     0.44200
C825        C  0.46977670  0.83658046  0.90382472    -0.04900
C826        C  0.01440317  0.82764929  0.90689238    -0.32300
C827        C  0.04191332  0.82536929  0.87854415     0.36900
C828        C  0.02445503  0.83168555  0.84654123    -0.05200
C829        C  0.47846579  0.83708539  0.84358079    -0.32200
C830        C  0.45141507  0.83989678  0.87183195     0.36900
H831        H  0.02889193  0.82491211  0.93140291     0.17200
O832        O  0.08623585  0.81886370  0.88270569    -0.59700
H833        H  0.46376133  0.84128047  0.81940584     0.17200
O834        O  0.40717702  0.84702013  0.86804671    -0.59800
H835        H  0.40634541  0.86949114  0.86386235     0.44200
H836        H  0.09947347  0.83796989  0.89218813     0.44200
C837        C  0.46895984  0.84124925  0.59732654    -0.04900
C838        C  0.01214574  0.82931020  0.59439886    -0.32300
C839        C  0.03944640  0.82680930  0.62266921     0.36900
C840        C  0.02299100  0.83570719  0.65447295    -0.05200
C841        C  0.47818943  0.84470377  0.65732680    -0.32200
C842        C  0.45153889  0.84781278  0.62918144     0.36900
H843        H  0.02586489  0.82413258  0.56998500     0.17200
O844        O  0.08265324  0.81720400  0.61857789    -0.59700
H845        H  0.46432155  0.85140528  0.68126360     0.17200
O846        O  0.40916864  0.85920682  0.63289696    -0.59800
H847        H  0.38964833  0.84082394  0.63358052     0.44200
H848        H  0.09923946  0.83569217  0.61111300     0.44200
C849        C  0.21905145  0.91184939  0.84822969    -0.04900
C850        C  0.26179003  0.92461029  0.84620027    -0.32300
C851        C  0.28810651  0.92757850  0.87492831     0.36900
C852        C  0.27133138  0.91775049  0.90608600    -0.05200
C853        C  0.22651212  0.90874390  0.90825475    -0.32200
C854        C  0.20075731  0.90526571  0.87964186     0.36900
H855        H  0.27603105  0.92999677  0.82211600     0.17200
O856        O  0.33118443  0.93759705  0.87167508    -0.59700
H857        H  0.21219227  0.90187327  0.93185066     0.17200
O858        O  0.15824913  0.89394523  0.88240945    -0.59800
H859        H  0.16190024  0.87143073  0.88560585     0.44200
H860        H  0.32961810  0.96028340  0.87445619     0.44200
C861        C  0.26992453  0.92042284  0.59537488    -0.04900
C862        C  0.28886243  0.92834328  0.62646252    -0.32300
C863        C  0.26408120  0.92570663  0.65599241     0.36900
C864        C  0.22015149  0.91468612  0.65454305    -0.05200
C865        C  0.19970502  0.91054758  0.62347516    -0.32200
C866        C  0.22397466  0.91361347  0.59400315     0.36900
H867        H  0.32385654  0.93418159  0.62825845     0.17200
O868        O  0.28451505  0.93065653  0.68610137    -0.59700
H869        H  0.16531372  0.90302756  0.62209154     0.17200
O870        O  0.20293485  0.90823466  0.56415971    -0.59800
H871        H  0.19926661  0.88555381  0.56257378     0.44200
H872        H  0.27893034  0.95265390  0.69151863     0.44200
C873        C  0.46713248  0.66026810  0.84796411    -0.04900
C874        C  0.44713172  0.65815780  0.87946654    -0.32300
C875        C  0.47239978  0.66169371  0.90856510     0.36900
C876        C  0.01878385  0.66671976  0.90636721    -0.05200
C877        C  0.03768685  0.67196656  0.87474324    -0.32200
C878        C  0.01211007  0.66892188  0.84568245     0.36900
H879        H  0.41213247  0.65234328  0.88151467     0.17200
O880        O  0.45170459  0.65915143  0.93895135    -0.59700
H881        H  0.07311961  0.67605390  0.87224021     0.17200
O882        O  0.03252386  0.67113875  0.81520324    -0.59800
H883        H  0.02874428  0.69292660  0.80865688     0.44200
H884        H  0.44572267  0.63686861  0.94171196     0.44200
C885        C  0.47243214  0.66373926  0.65474543    -0.04900
C886        C  0.45250500  0.66144834  0.62330231    -0.32300
C887        C  0.47799071  0.66353068  0.59427677     0.36900
C888        C  0.02459935  0.66757503  0.59645272    -0.05200
C889        C  0.04361419  0.67331918  0.62802886    -0.32200
C890        C  0.01770980  0.67155707  0.65710803     0.36900
H891        H  0.41737291  0.65598797  0.62124764     0.17200
O892        O  0.45722414  0.65999013  0.56402609    -0.59700
H893        H  0.07918496  0.67680137  0.63047624     0.17200
O894        O  0.03791862  0.67408733  0.68762636    -0.59800
H895        H  0.03429305  0.69600569  0.69426868     0.44200
H896        H  0.45107898  0.63759979  0.56175491     0.44200
C897        C  0.21368692  0.58833390  0.89786987    -0.04900
C898        C  0.19534014  0.59660111  0.86711130    -0.32300
C899        C  0.21993387  0.59368749  0.83771202     0.36900
C900        C  0.26443966  0.58317828  0.83886747    -0.05200
C901        C  0.28093365  0.57179508  0.86925330    -0.32200
C902        C  0.25566468  0.57409071  0.89861365     0.36900
H903        H  0.16247453  0.60688933  0.86609263     0.17200
O904        O  0.20122513  0.60365470  0.80857392    -0.59700
H905        H  0.31467525  0.56311806  0.87085521     0.17200
O906        O  0.27422922  0.56547133  0.92829368    -0.59800
H907        H  0.26740859  0.54321844  0.93029327     0.44200
H908        H  0.18780546  0.58500107  0.79824643     0.44200
C909        C  0.27655359  0.57832889  0.65007056    -0.04900
C910        C  0.29565782  0.57345430  0.61831738    -0.32300
C911        C  0.26973159  0.57592773  0.58928125     0.36900
C912        C  0.22423767  0.58326342  0.59188533    -0.05200
C913        C  0.20430972  0.58447986  0.62344976    -0.32200
C914        C  0.22983992  0.58179981  0.65237520     0.36900
H915        H  0.33128837  0.57029656  0.61576884     0.17200
O916        O  0.28981746  0.57364495  0.55863141    -0.59700
H917        H  0.16905211  0.58946202  0.62575300     0.17200
O918        O  0.20898529  0.58411816  0.68277655    -0.59800
H919        H  0.20158128  0.60627044  0.68565353     0.44200
H920        H  0.30049612  0.59471230  0.55364114     0.44200
C921        C  0.03285804  0.52984458  0.00038964    -0.04900
C922        C  0.49850071  0.52799758  0.52402534    -0.32300
C923        C  0.46951211  0.50279300  0.52431534     0.36900
C924        C  0.47398310  0.97916020  0.00020044    -0.05200
C925        C  0.00820717  0.98113525  0.97636363    -0.32200
C926        C  0.03799472  0.00601052  0.97668086     0.36900
H927        H  0.99411822  0.54623722  0.54238239     0.17200
O928        O  0.43648007  0.50178519  0.54794611    -0.59700
H929        H  0.51222226  0.96315259  0.95767834     0.17200
O930        O  0.07052043  0.00760141  0.95272154    -0.59800
H931        H  0.09552989  0.99505612  0.96137773     0.44200
H932        H  0.41057816  0.51218590  0.53769848     0.44200
C933        C  0.28163878  0.78046113  0.00218421    -0.04900
C934        C  0.28679600  0.75800683  0.97710767    -0.32300
C935        C  0.25860915  0.73221233  0.97573843     0.36900
C936        C  0.22575954  0.72794522  0.00049420    -0.05200
C937        C  0.22147818  0.75009912  0.52605389    -0.32200
C938        C  0.24841610  0.77648702  0.52660118     0.36900
H939        H  0.31196276  0.76089928  0.95800205     0.17200
O940        O  0.26440411  0.71083196  0.95070831    -0.59700
H941        H  0.19647448  0.74729919  0.54529570     0.17200
O942        O  0.24289926  0.79787858  0.55166430    -0.59800
H943        H  0.21804850  0.81122454  0.54424452     0.44200
H944        H  0.24783061  0.71905794  0.93142288     0.44200
Zn945      Zn  0.56153355  0.12755754  0.00073363     1.49700
Zn946      Zn  0.64275049  0.15350299  0.46026373     1.49400
Zn947      Zn  0.64651532  0.15150020  0.03933797     1.49100
Zn948      Zn  0.65240908  0.08759056  0.49682232     1.49500
O949        O  0.62617065  0.12972604  0.99935386    -1.83500
O950        O  0.53342384  0.14569288  0.45990473    -0.74200
O951        O  0.68287383  0.18947273  0.47231464    -0.74000
O952        O  0.59572762  0.16437924  0.06968686    -0.73500
O953        O  0.58971350  0.16742619  0.43323525    -0.74200
O954        O  0.53684952  0.14753279  0.04184215    -0.73800
O955        O  0.68398825  0.18884671  0.02772249    -0.74400
O956        O  0.69205026  0.07905655  0.03733906    -0.73800
O957        O  0.67546213  0.12610232  0.42870412    -0.74500
O958        O  0.68312213  0.12254474  0.06656137    -0.73900
O959        O  0.68721971  0.08125537  0.45361572    -0.74400
O960        O  0.60298678  0.05544138  0.49658114    -0.74300
O961        O  0.54161610  0.08372193  0.00227811    -0.74100
C962        C  0.54855525  0.16056319  0.43515354     0.77700
C963        C  0.69600526  0.20063625  0.50012331     0.78200
C964        C  0.55383345  0.16031297  0.06748178     0.77200
C965        C  0.69879611  0.09540880  0.06345929     0.77500
C966        C  0.69105722  0.09887286  0.42852015     0.78700
C967        C  0.56083845  0.05772251  0.99965956     0.77700
Zn968      Zn  0.89396102  0.40321553  0.46096911     1.49700
Zn969      Zn  0.89221881  0.40519249  0.03952944     1.49400
Zn970      Zn  0.80998456  0.37867234  0.50104738     1.49100
Zn971      Zn  0.90111810  0.33910239  0.50054783     1.49500
O972        O  0.87458059  0.38110150  0.50050587    -1.83500
O973        O  0.93350131  0.43947258  0.47237023    -0.74200
O974        O  0.84093272  0.41865439  0.06863278    -0.74000
O975        O  0.78469759  0.39714683  0.45970800    -0.73500
O976        O  0.92929848  0.44201290  0.02758920    -0.74200
O977        O  0.84242414  0.41680040  0.43272634    -0.73800
O978        O  0.78340729  0.39911233  0.04140180    -0.74400
O979        O  0.85155340  0.30664672  0.50022567    -0.73800
O980        O  0.92843619  0.37847720  0.06854292    -0.74500
O981        O  0.78952877  0.33464123  0.50261746    -0.73900
O982        O  0.93838229  0.33326392  0.04279166    -0.74400
O983        O  0.93939983  0.33127820  0.45885720    -0.74300
O984        O  0.92857909  0.37494658  0.43144933    -0.74100
C985        C  0.94384201  0.45223071  0.50001275     0.77700
C986        C  0.79940302  0.41330644  0.06653277     0.78200
C987        C  0.80095256  0.41111790  0.43469482     0.77200
C988        C  0.80917663  0.30868310  0.50171823     0.77500
C989        C  0.94420532  0.35130787  0.06773546     0.78700
C990        C  0.94467909  0.34792821  0.43310332     0.77700
Zn991      Zn  0.89097333  0.09524698  0.28801002     1.49700
Zn992      Zn  0.89726628  0.09572185  0.20865275     1.49400
Zn993      Zn  0.81153183  0.12097683  0.24489433     1.49100
Zn994      Zn  0.90245558  0.16012076  0.25036950     1.49500
O995        O  0.87591717  0.11823670  0.24798247    -1.83500
O996        O  0.92934936  0.05823172  0.27681452    -0.74200
O997        O  0.84725215  0.08075517  0.17801583    -0.74000
O998        O  0.78192325  0.10344432  0.28537194    -0.73500
O999        O  0.93804013  0.06058837  0.22174485    -0.74200
O1000       O  0.83675721  0.08247891  0.31418626    -0.73800
O1001       O  0.78828253  0.10029086  0.20377192    -0.74400
O1002       O  0.85338105  0.19251033  0.25097630    -0.73800
O1003       O  0.93214330  0.12466316  0.18077072    -0.74500
O1004       O  0.79191270  0.16498408  0.24239793    -0.73900
O1005       O  0.94120971  0.16839863  0.20948493    -0.74400
O1006       O  0.93872047  0.16624874  0.29281932    -0.74300
O1007       O  0.92513206  0.12253614  0.31956596    -0.74100
C1008       C  0.94645354  0.04816825  0.24971373     0.77700
C1009       C  0.80546840  0.08591962  0.17916309     0.78200
C1010       C  0.79572871  0.08915280  0.31090071     0.77200
C1011       C  0.81143224  0.19074781  0.24640579     0.77500
C1012       C  0.94753220  0.15186359  0.18345650     0.78700
C1013       C  0.94234913  0.14930717  0.31845790     0.77700
Zn1014     Zn  0.64660327  0.34562905  0.28902385     1.49700
Zn1015     Zn  0.56308208  0.37170402  0.25150571     1.49400
Zn1016     Zn  0.65378543  0.41150224  0.25115896     1.50700
Zn1017     Zn  0.64601698  0.34713378  0.21028650     1.49500
O1018       O  0.62764690  0.36927573  0.25050789    -1.83500
O1019       O  0.59529729  0.33234220  0.31863282    -0.74200
O1020       O  0.54321138  0.41578539  0.25288384    -0.74000
O1021       O  0.68992287  0.41861444  0.29342071    -0.73500
O1022       O  0.53720880  0.35217997  0.29254725    -0.74200
O1023       O  0.68158103  0.37334541  0.31837205    -0.73800
O1024       O  0.60484116  0.44394018  0.25066871    -0.74400
O1025       O  0.68130823  0.37557518  0.18191177    -0.73800
O1026       O  0.53675081  0.35365885  0.20968932    -0.74500
O1027       O  0.69184634  0.41939293  0.21008283    -0.73900
O1028       O  0.59425971  0.33542049  0.18103053    -0.74400
O1029       O  0.68345504  0.30958091  0.22051589    -0.74300
O1030       O  0.68560704  0.30934500  0.27588458    -0.74100
C1031       C  0.55378473  0.33821552  0.31740989     0.77700
C1032       C  0.56252698  0.44185309  0.25188188     0.78200
C1033       C  0.69593641  0.40088888  0.31816053     0.77200
C1034       C  0.69699487  0.40274240  0.18404189     0.77500
C1035       C  0.55281100  0.34098442  0.18352978     0.78700
C1036       C  0.69690354  0.29788394  0.24773086     0.77700
C1037       C  0.97670527  0.02138277  0.25082447    -0.04900
C1038       C  0.51810558  0.02234077  0.23451052    -0.32300
C1039       C  0.54732424  0.99710622  0.23563539     0.36900
C1040       C  0.53450007  0.46998055  0.25223495    -0.05200
C1041       C  0.99301596  0.46920566  0.26849710    -0.32200
C1042       C  0.96451487  0.49468257  0.26818967     0.36900
H1043       H  0.52800592  0.04284155  0.22118123     0.17200
O1044       O  0.58733791  0.99873228  0.21921199    -0.59700
H1045       H  0.98255428  0.44869760  0.28157526     0.17200
O1046       O  0.92432114  0.49300555  0.28436872    -0.59800
H1047       H  0.90307311  0.48508375  0.26745221     0.44200
H1048       H  0.60804775  0.00876511  0.23527218     0.44200
C1049       C  0.78413678  0.21901484  0.24593980    -0.04900
C1050       C  0.75142378  0.22240205  0.22130397    -0.32300
C1051       C  0.72324103  0.24812068  0.22129617     0.36900
C1052       C  0.72677409  0.27067971  0.24670302    -0.05200
C1053       C  0.75942998  0.26712892  0.27145889    -0.32200
C1054       C  0.78841625  0.24179953  0.27090131     0.36900
H1055       H  0.74768733  0.20498564  0.20196952     0.17200
O1056       O  0.69179412  0.25062333  0.19671353    -0.59700
H1057       H  0.76275373  0.28419374  0.29118721     0.17200
O1058       O  0.81918766  0.23867210  0.29586359    -0.59800
H1059       H  0.84554887  0.25054907  0.28837448     0.44200
H1060       H  0.66529236  0.23958265  0.20526156     0.44200
C1061       C  0.96977399  0.33657669  0.40382480    -0.04900
C1062       C  0.51439943  0.32764308  0.40689283    -0.32300
C1063       C  0.54191035  0.32536288  0.37854501     0.36900
C1064       C  0.52445384  0.33168149  0.34654215    -0.05200
C1065       C  0.97846509  0.33708320  0.34358112    -0.32200
C1066       C  0.95141372  0.33989490  0.37183186     0.36900
H1067       H  0.52888705  0.32490402  0.43140348     0.17200
O1068       O  0.58623197  0.31885467  0.38270699    -0.59700
H1069       H  0.96376171  0.34127984  0.31940614     0.17200
O1070       O  0.90717650  0.34702036  0.36804606    -0.59800
H1071       H  0.90634728  0.36949185  0.36386167     0.44200
H1072       H  0.59947219  0.33796074  0.39218840     0.44200
C1073       C  0.96895996  0.34125136  0.09732885    -0.04900
C1074       C  0.51214357  0.32930821  0.09440164    -0.32300
C1075       C  0.53944397  0.32680593  0.12267206     0.36900
C1076       C  0.52299050  0.33570663  0.15447542    -0.05200
C1077       C  0.97819061  0.34470747  0.15732900    -0.32200
C1078       C  0.95154053  0.34781784  0.12918358     0.36900
H1079       H  0.52586148  0.32412811  0.06998799     0.17200
O1080       O  0.58264869  0.31719592  0.11858126    -0.59700
H1081       H  0.96432403  0.35141127  0.18126549     0.17200
O1082       O  0.90917250  0.35921589  0.13289886    -0.59800
H1083       H  0.88964869  0.34083467  0.13358426     0.44200
H1084       H  0.59923900  0.33568211  0.11111472     0.44200
C1085       C  0.71904746  0.41184769  0.34823453    -0.04900
C1086       C  0.76178251  0.42461463  0.34620662    -0.32300
C1087       C  0.78809841  0.42758301  0.37493500     0.36900
C1088       C  0.77132650  0.41774864  0.40609120    -0.05200
C1089       C  0.72650943  0.40873674  0.40825908    -0.32200
C1090       C  0.70075511  0.40525879  0.37964599     0.36900
H1091       H  0.77602172  0.43000595  0.32212309     0.17200
O1092       O  0.83117304  0.43760878  0.37168334    -0.59700
H1093       H  0.71219150  0.40186167  0.43185410     0.17200
O1094       O  0.65824943  0.39393357  0.38241252    -0.59800
H1095       H  0.66190553  0.37141881  0.38560729     0.44200
H1096       H  0.82960013  0.46029390  0.37447266     0.44200
C1097       C  0.76992633  0.42042183  0.09537845    -0.04900
C1098       C  0.78886448  0.42834118  0.12646634    -0.32300
C1099       C  0.76408333  0.42570382  0.15599620     0.36900
C1100       C  0.72015344  0.41468369  0.15454661    -0.05200
C1101       C  0.69970696  0.41054577  0.12347864    -0.32200
C1102       C  0.72397653  0.41361227  0.09400668     0.36900
H1103       H  0.82385863  0.43417937  0.12826237     0.17200
O1104       O  0.78451734  0.43065277  0.18610527    -0.59700
H1105       H  0.66531562  0.40302587  0.12209487     0.17200
O1106       O  0.70293660  0.40823389  0.06416317    -0.59800
H1107       H  0.69926928  0.38555359  0.06257652     0.44200
H1108       H  0.77893219  0.45264989  0.19152355     0.44200
C1109       C  0.96713084  0.16026275  0.34796583    -0.04900
C1110       C  0.94713024  0.15815542  0.37946859    -0.32300
C1111       C  0.97239913  0.16169205  0.40856674     0.36900
C1112       C  0.51878357  0.16671574  0.40636804    -0.05200
C1113       C  0.53768673  0.17195923  0.37474349    -0.32200
C1114       C  0.51210930  0.16891381  0.34568314     0.36900
H1115       H  0.91213037  0.15234285  0.38151739     0.17200
O1116       O  0.95170420  0.15915310  0.43895344    -0.59700
H1117       H  0.57311995  0.17604437  0.37223987     0.17200
O1118       O  0.53252308  0.17112723  0.31520358    -0.59800
H1119       H  0.52874572  0.19291442  0.30865521     0.44200
H1120       H  0.94571967  0.13687060  0.44171598     0.44200
C1121       C  0.97243546  0.16373447  0.15474872    -0.04900
C1122       C  0.95250887  0.16144327  0.12330546    -0.32300
C1123       C  0.97799454  0.16352671  0.09428002     0.36900
C1124       C  0.52460293  0.16757265  0.09645590    -0.05200
C1125       C  0.54361740  0.17331629  0.12803232    -0.32200
C1126       C  0.51771290  0.17155295  0.15711151     0.36900
H1127       H  0.91737704  0.15598214  0.12125052     0.17200
O1128       O  0.95722804  0.15998596  0.06402937    -0.59700
H1129       H  0.57918797  0.17679944  0.13047975     0.17200
O1130       O  0.53792140  0.17408331  0.18762995    -0.59800
H1131       H  0.53429380  0.19600112  0.19427291     0.44200
H1132       H  0.95108502  0.13759492  0.06175756     0.44200
C1133       C  0.71368474  0.08832903  0.39787079    -0.04900
C1134       C  0.69533660  0.09659393  0.36711188    -0.32300
C1135       C  0.71992961  0.09367886  0.33771231     0.36900
C1136       C  0.76443608  0.08317104  0.33886787    -0.05200
C1137       C  0.78093113  0.07178965  0.36925421    -0.32200
C1138       C  0.75566288  0.07408643  0.39861477     0.36900
H1139       H  0.66247050  0.10688135  0.36609308     0.17200
O1140       O  0.70121954  0.10364341  0.30857361    -0.59700
H1141       H  0.81467318  0.06311347  0.37085629     0.17200
O1142       O  0.77422858  0.06546891  0.42829506    -0.59800
H1143       H  0.76740413  0.04321703  0.43029805     0.44200
H1144       H  0.68780027  0.08498857  0.29824801     0.44200
C1145       C  0.77655675  0.07832839  0.15006704    -0.04900
C1146       C  0.79566341  0.07346006  0.11831363    -0.32300
C1147       C  0.76973807  0.07593507  0.08927729     0.36900
C1148       C  0.72424246  0.08326562  0.09188132    -0.05200
C1149       C  0.70431284  0.08447631  0.12344537    -0.32200
C1150       C  0.72984240  0.08179495  0.15237106     0.36900
H1151       H  0.83129473  0.07030617  0.11576552     0.17200
O1152       O  0.78982586  0.07365875  0.05862769    -0.59700
H1153       H  0.66905415  0.08945483  0.12574839     0.17200
O1154       O  0.70898626  0.08410744  0.18277229    -0.59800
H1155       H  0.70157779  0.10625858  0.18565242     0.44200
H1156       H  0.80049904  0.09472863  0.05364071     0.44200
C1157       C  0.53285974  0.02984089  0.50039073    -0.04900
C1158       C  0.99850442  0.02799967  0.02402720    -0.32300
C1159       C  0.96951602  0.00279493  0.02431801     0.36900
C1160       C  0.97398427  0.47915609  0.50020088    -0.05200
C1161       C  0.50821367  0.48112859  0.47636816    -0.32200
C1162       C  0.53800134  0.50600383  0.47668628     0.36900
H1163       H  0.49412607  0.04623758  0.04238684     0.17200
O1164       O  0.93648941  0.00178478  0.04795289    -0.59700
H1165       H  0.01223236  0.46314421  0.45768523     0.17200
O1166       O  0.57053242  0.50759221  0.45273081    -0.59800
H1167       H  0.59553976  0.49504757  0.46139156     0.44200
H1168       H  0.91058512  0.01218635  0.03770980     0.44200
C1169       C  0.78164119  0.28045697  0.50218931    -0.04900
C1170       C  0.78679742  0.25800362  0.47711169    -0.32300
C1171       C  0.75861008  0.23220948  0.47574145     0.36900
C1172       C  0.72576063  0.22794175  0.50049713    -0.05200
C1173       C  0.72147315  0.25010489  0.02604746    -0.32200
C1174       C  0.74841052  0.27649297  0.02659477     0.36900
H1175       H  0.81196368  0.26089670  0.45800580     0.17200
O1176       O  0.76440436  0.21083004  0.45071032    -0.59700
H1177       H  0.69646639  0.24730626  0.04528730     0.17200
O1178       O  0.74288893  0.29788650  0.05165533    -0.59800
H1179       H  0.71803870  0.31123131  0.04423208     0.44200
H1180       H  0.74783033  0.21905684  0.43142544     0.44200
Zn1181     Zn  0.56153257  0.12755400  0.50073438     1.49700
Zn1182     Zn  0.64275097  0.15350561  0.96026219     1.49400
Zn1183     Zn  0.64651357  0.15149723  0.53933898     1.49100
Zn1184     Zn  0.65240866  0.08759323  0.99682046     1.49500
O1185       O  0.62616979  0.12972302  0.49935500    -1.83500
O1186       O  0.53342406  0.14569781  0.95990498    -0.74200
O1187       O  0.68287389  0.18947546  0.97231221    -0.74000
O1188       O  0.59572555  0.16437784  0.56968563    -0.73500
O1189       O  0.58971406  0.16742889  0.93323392    -0.74200
O1190       O  0.53684689  0.14753094  0.54184179    -0.73800
O1191       O  0.68398796  0.18884293  0.52772483    -0.74400
O1192       O  0.69205098  0.07905448  0.53734128    -0.73800
O1193       O  0.67546289  0.12610504  0.92870293    -0.74500
O1194       O  0.68311819  0.12254203  0.56656376    -0.73900
O1195       O  0.68721990  0.08125789  0.95361418    -0.74400
O1196       O  0.60298567  0.05544456  0.99657911    -0.74300
O1197       O  0.54161642  0.08371809  0.50227965    -0.74100
C1198       C  0.54855544  0.16056733  0.93515322     0.77700
C1199       C  0.69600510  0.20063964  0.00012059     0.78200
C1200       C  0.55383131  0.16031228  0.56748059     0.77200
C1201       C  0.69879411  0.09540663  0.56346200     0.77500
C1202       C  0.69105801  0.09887560  0.92851886     0.78700
C1203       C  0.56083947  0.05771887  0.49966131     0.77700
Zn1204     Zn  0.89396227  0.40321852  0.96096969     1.49700
Zn1205     Zn  0.89221791  0.40518977  0.53952894     1.49400
Zn1206     Zn  0.80998486  0.37867631  0.00104643     1.49100
Zn1207     Zn  0.90111797  0.33910516  0.00054806     1.49500
O1208       O  0.87458112  0.38110454  0.00050611    -1.83500
O1209       O  0.93350108  0.43947587  0.97237106    -0.74200
O1210       O  0.84093206  0.41865350  0.56863140    -0.74000
O1211       O  0.78469832  0.39715149  0.95970688    -0.73500
O1212       O  0.92929876  0.44200925  0.52758838    -0.74200
O1213       O  0.84242684  0.41680255  0.93272555    -0.73800
O1214       O  0.78340685  0.39910997  0.54140152    -0.74400
O1215       O  0.85155241  0.30665001  0.00022353    -0.73800
O1216       O  0.92843428  0.37847457  0.56854303    -0.74500
O1217       O  0.78952849  0.33464535  0.00261415    -0.73900
O1218       O  0.93838395  0.33326223  0.54279048    -0.74400
O1219       O  0.93940109  0.33128141  0.95885804    -0.74300
O1220       O  0.92858143  0.37495012  0.93145055    -0.74100
C1221       C  0.94384147  0.45223431  0.00001344     0.77700
C1222       C  0.79940238  0.41330552  0.56653157     0.78200
C1223       C  0.80095495  0.41112115  0.93469335     0.77200
C1224       C  0.80917561  0.30868697  0.00171473     0.77500
C1225       C  0.94420531  0.35130581  0.56773479     0.78700
C1226       C  0.94468115  0.34793172  0.93310448     0.77700
Zn1227     Zn  0.89097624  0.09525236  0.78800935     1.49700
Zn1228     Zn  0.89726723  0.09572666  0.70865214     1.49400
Zn1229     Zn  0.81153448  0.12098249  0.74489449     1.49100
Zn1230     Zn  0.90245758  0.16012604  0.75036876     1.49500
O1231       O  0.87591946  0.11824194  0.74798200    -1.83500
O1232       O  0.92935313  0.05823757  0.77681359    -0.74200
O1233       O  0.84725215  0.08075807  0.67801711    -0.74000
O1234       O  0.78192695  0.10345078  0.78537239    -0.73500
O1235       O  0.93804298  0.06059394  0.72174385    -0.74200
O1236       O  0.83676041  0.08248360  0.81418570    -0.73800
O1237       O  0.78828405  0.10029539  0.70377353    -0.74400
O1238       O  0.85338336  0.19251574  0.75097569    -0.73800
O1239       O  0.93214141  0.12466844  0.68076870    -0.74500
O1240       O  0.79191518  0.16498946  0.74239711    -0.73900
O1241       O  0.94121004  0.16840344  0.70948355    -0.74400
O1242       O  0.93872301  0.16625453  0.79281831    -0.74300
O1243       O  0.92513408  0.12254209  0.81956509    -0.74100
C1244       C  0.94645703  0.04817399  0.74971273     0.77700
C1245       C  0.80546851  0.08592280  0.67916511     0.78200
C1246       C  0.79573213  0.08915837  0.81090061     0.77200
C1247       C  0.81143463  0.19075319  0.74640493     0.77500
C1248       C  0.94753071  0.15186875  0.68345462     0.78700
C1249       C  0.94235108  0.14931314  0.81845709     0.77700
Zn1250     Zn  0.64660311  0.34563286  0.78902310     1.49700
Zn1251     Zn  0.56308142  0.37170826  0.75150491     1.49400
Zn1252     Zn  0.65378607  0.41150551  0.75115758     1.50700
Zn1253     Zn  0.64601660  0.34713711  0.71028618     1.49500
O1254       O  0.62764646  0.36927944  0.75050715    -1.83500
O1255       O  0.59529731  0.33234655  0.81863197    -0.74200
O1256       O  0.54321195  0.41579012  0.75288288    -0.74000
O1257       O  0.68992488  0.41861722  0.79341875    -0.73500
O1258       O  0.53720826  0.35218456  0.79254714    -0.74200
O1259       O  0.68158164  0.37334885  0.81837130    -0.73800
O1260       O  0.60484264  0.44394405  0.75066736    -0.74400
O1261       O  0.68130692  0.37557788  0.68191037    -0.73800
O1262       O  0.53674994  0.35366282  0.70968818    -0.74500
O1263       O  0.69184630  0.41939561  0.71008106    -0.73900
O1264       O  0.59425964  0.33542317  0.68103117    -0.74400
O1265       O  0.68345507  0.30958469  0.72051537    -0.74300
O1266       O  0.68560662  0.30934864  0.77588402    -0.74100
C1267       C  0.55378482  0.33822015  0.81740964     0.77700
C1268       C  0.56252841  0.44185753  0.75188067     0.78200
C1269       C  0.69593829  0.40089199  0.81815889     0.77200
C1270       C  0.69699394  0.40274498  0.68404013     0.77500
C1271       C  0.55281100  0.34098745  0.68352940     0.78700
C1272       C  0.69690349  0.29788775  0.74773032     0.77700
C1273       C  0.97670845  0.02138823  0.75082337    -0.04900
C1274       C  0.51810698  0.02234468  0.73450631    -0.32300
C1275       C  0.54732520  0.99710984  0.73563098     0.36900
C1276       C  0.53450249  0.46998541  0.75223374    -0.05200
C1277       C  0.99301965  0.46921181  0.76849865    -0.32200
C1278       C  0.96451944  0.49468923  0.76819151     0.36900
H1279       H  0.52800583  0.04284423  0.72117428     0.17200
O1280       O  0.58733638  0.99873397  0.71920391    -0.59700
H1281       H  0.98255920  0.44870480  0.78157925     0.17200
O1282       O  0.92432789  0.49301390  0.78437384    -0.59800
H1283       H  0.90307755  0.48509091  0.76745990     0.44200
H1284       H  0.60804888  0.00876760  0.73526121     0.44200
C1285       C  0.78413906  0.21902010  0.74593874    -0.04900
C1286       C  0.75142564  0.22240676  0.72130313    -0.32300
C1287       C  0.72324196  0.24812487  0.72129559     0.36900
C1288       C  0.72677466  0.27068393  0.74670242    -0.05200
C1289       C  0.75943108  0.26713376  0.77145799    -0.32200
C1290       C  0.78841821  0.24180487  0.77090017     0.36900
H1291       H  0.74768939  0.20499023  0.70196878     0.17200
O1292       O  0.69179441  0.25062691  0.69671334    -0.59700
H1293       H  0.76275453  0.28419868  0.79118626     0.17200
O1294       O  0.81918999  0.23867790  0.79586226    -0.59800
H1295       H  0.84555077  0.25055582  0.78837311     0.44200
H1296       H  0.66529328  0.23958526  0.70526160     0.44200
C1297       C  0.96977627  0.33658047  0.90382607    -0.04900
C1298       C  0.51440276  0.32764944  0.90689358    -0.32300
C1299       C  0.54191318  0.32536983  0.87854549     0.36900
C1300       C  0.52445510  0.33168628  0.84654256    -0.05200
C1301       C  0.97846560  0.33708575  0.84358217    -0.32200
C1302       C  0.95141472  0.33989683  0.87183328     0.36900
H1303       H  0.52889134  0.32491212  0.93140416     0.17200
O1304       O  0.58623571  0.31886446  0.88270718    -0.59700
H1305       H  0.96376118  0.34128079  0.81940721     0.17200
O1306       O  0.90717664  0.34702002  0.86804797    -0.59800
H1307       H  0.90634486  0.36949104  0.86386361     0.44200
H1308       H  0.59947322  0.33797103  0.89219018     0.44200
C1309       C  0.96896087  0.34124958  0.59732761    -0.04900
C1310       C  0.51214779  0.32931247  0.59440023    -0.32300
C1311       C  0.53944837  0.32681194  0.62267063     0.36900
C1312       C  0.52299193  0.33570833  0.65447456    -0.05200
C1313       C  0.97818946  0.34470296  0.65732805    -0.32200
C1314       C  0.95153901  0.34781173  0.62918255     0.36900
H1315       H  0.52586763  0.32413611  0.56998628     0.17200
O1316       O  0.58265613  0.31720870  0.61857916    -0.59700
H1317       H  0.96432085  0.35140330  0.68126500     0.17200
O1318       O  0.90916785  0.35920411  0.63289799    -0.59800
H1319       H  0.88964913  0.34082031  0.63358284     0.44200
H1320       H  0.59924094  0.33569812  0.61111565     0.44200
C1321       C  0.71905108  0.41185086  0.84823204    -0.04900
C1322       C  0.76178925  0.42461251  0.84620301    -0.32300
C1323       C  0.78810547  0.42758058  0.87493119     0.36900
C1324       C  0.77133065  0.41775153  0.90608859    -0.05200
C1325       C  0.72651159  0.40874441  0.90825711    -0.32200
C1326       C  0.70075693  0.40526653  0.87964408     0.36900
H1327       H  0.77603019  0.42999969  0.82211890     0.17200
O1328       O  0.83118293  0.43760025  0.87167835    -0.59700
H1329       H  0.71219186  0.40187314  0.93185284     0.17200
O1330       O  0.65824885  0.39394586  0.88241136    -0.59800
H1331       H  0.66190029  0.37143080  0.88560763     0.44200
H1332       H  0.82961633  0.46028578  0.87446456     0.44200
C1333       C  0.76992549  0.42042251  0.59537659    -0.04900
C1334       C  0.78886353  0.42834262  0.62646426    -0.32300
C1335       C  0.76408222  0.42570602  0.65599409     0.36900
C1336       C  0.72015232  0.41468590  0.65454464    -0.05200
C1337       C  0.69970581  0.41054756  0.62347674    -0.32200
C1338       C  0.72397556  0.41361343  0.59400477     0.36900
H1339       H  0.82385775  0.43418062  0.62826024     0.17200
O1340       O  0.78451611  0.43065560  0.68610310    -0.59700
H1341       H  0.66531441  0.40302779  0.62209307     0.17200
O1342       O  0.70293574  0.40823486  0.56416125    -0.59800
H1343       H  0.69926728  0.38555449  0.56257518     0.44200
H1344       H  0.77892984  0.45265248  0.69152130     0.44200
C1345       C  0.96713151  0.16026896  0.84796558    -0.04900
C1346       C  0.94713108  0.15815858  0.87946813    -0.32300
C1347       C  0.97239943  0.16169459  0.90856657     0.36900
C1348       C  0.51878306  0.16672069  0.90636826    -0.05200
C1349       C  0.53768546  0.17196801  0.87474420    -0.32200
C1350       C  0.51210836  0.16892337  0.84568357     0.36900
H1351       H  0.91213190  0.15234390  0.88151645     0.17200
O1352       O  0.95170458  0.15915205  0.93895295    -0.59700
H1353       H  0.57311812  0.17605572  0.87224095     0.17200
O1354       O  0.53252167  0.17114080  0.81520423    -0.59800
H1355       H  0.52874291  0.19292871  0.80865876     0.44200
H1356       H  0.94572309  0.13686965  0.94171350     0.44200
C1357       C  0.97243410  0.16373957  0.65474705    -0.04900
C1358       C  0.95250657  0.16145109  0.62330388    -0.32300
C1359       C  0.97799254  0.16353297  0.59427832     0.36900
C1360       C  0.52460167  0.16757441  0.59645430    -0.05200
C1361       C  0.54361735  0.17331603  0.62803066    -0.32200
C1362       C  0.51771290  0.17155421  0.65710982     0.36900
H1363       H  0.91737374  0.15599300  0.62124907     0.17200
O1364       O  0.95722557  0.15999514  0.56402750    -0.59700
H1365       H  0.57918857  0.17679591  0.63047813     0.17200
O1366       O  0.53792232  0.17408161  0.68762817    -0.59800
H1367       H  0.53429799  0.19599961  0.69427251     0.44200
H1368       H  0.95107724  0.13760464  0.56175515     0.44200
C1369       C  0.71368625  0.08833222  0.89786967    -0.04900
C1370       C  0.69533889  0.09659797  0.86711082    -0.32300
C1371       C  0.71993275  0.09368408  0.83771158     0.36900
C1372       C  0.76443922  0.08317627  0.83886743    -0.05200
C1373       C  0.78093367  0.07179407  0.86925356    -0.32200
C1374       C  0.75566456  0.07408982  0.89861382     0.36900
H1375       H  0.66247275  0.10688535  0.86609188     0.17200
O1376       O  0.70122349  0.10364986  0.80857312    -0.59700
H1377       H  0.81467572  0.06311794  0.87085577     0.17200
O1378       O  0.77422941  0.06547141  0.92829409    -0.59800
H1379       H  0.76740828  0.04321882  0.93029481     0.44200
H1380       H  0.68780497  0.08499509  0.79824601     0.44200
C1381       C  0.77655521  0.07833019  0.65007040    -0.04900
C1382       C  0.79566024  0.07345704  0.61831726    -0.32300
C1383       C  0.76973435  0.07593044  0.58928099     0.36900
C1384       C  0.72423983  0.08326435  0.59188488    -0.05200
C1385       C  0.70431136  0.08447960  0.62344918    -0.32200
C1386       C  0.72984135  0.08179985  0.65237477     0.36900
H1387       H  0.83129105  0.07030049  0.61576894     0.17200
O1388       O  0.78982087  0.07364924  0.55863130    -0.59700
H1389       H  0.66905340  0.08946061  0.62575222     0.17200
O1390       O  0.70898625  0.08411714  0.68277601    -0.59800
H1391       H  0.70158101  0.10626929  0.68565339     0.44200
H1392       H  0.80049883  0.09471759  0.55364200     0.44200
C1393       C  0.53285817  0.02984482  0.00038928    -0.04900
C1394       C  0.99850494  0.02799564  0.52402787    -0.32300
C1395       C  0.96951631  0.00279104  0.52431780     0.36900
C1396       C  0.97398336  0.47915985  0.00020100    -0.05200
C1397       C  0.50821143  0.48113257  0.97636711    -0.32200
C1398       C  0.53799883  0.50600793  0.97668446     0.36900
H1399       H  0.49412602  0.04623364  0.54238740     0.17200
O1400       O  0.93648879  0.00178088  0.54795198    -0.59700
H1401       H  0.01223060  0.46314754  0.95768510     0.17200
O1402       O  0.57052907  0.50759634  0.95272836    -0.59800
H1403       H  0.59553679  0.49505147  0.96138860     0.44200
H1404       H  0.91058580  0.01218367  0.53770906     0.44200
C1405       C  0.78163921  0.28046125  0.00218490    -0.04900
C1406       C  0.78679711  0.25800701  0.97710836    -0.32300
C1407       C  0.75861006  0.23221265  0.97573839     0.36900
C1408       C  0.72575955  0.22794559  0.00049347    -0.05200
C1409       C  0.72147654  0.25009980  0.52605270    -0.32200
C1410       C  0.74841450  0.27648765  0.52660051     0.36900
H1411       H  0.81196458  0.26089945  0.95800326     0.17200
O1412       O  0.76440575  0.21083234  0.95070830    -0.59700
H1413       H  0.69647109  0.24730045  0.54529334     0.17200
O1414       O  0.74289546  0.29787988  0.55166268    -0.59800
H1415       H  0.71804415  0.31122519  0.54424158     0.44200
H1416       H  0.74783289  0.21905848  0.93142254     0.44200
Zn1417     Zn  0.56153308  0.62755750  0.00073261     1.49700
Zn1418     Zn  0.64274963  0.65350345  0.46026400     1.49400
Zn1419     Zn  0.64651428  0.65150000  0.03933809     1.49100
Zn1420     Zn  0.65240871  0.58759062  0.49682185     1.49500
O1421       O  0.62617004  0.62972611  0.99935365    -1.83500
O1422       O  0.53342359  0.64569200  0.45990356    -0.74200
O1423       O  0.68287222  0.68947322  0.47231526    -0.74000
O1424       O  0.59572582  0.66437938  0.06968625    -0.73500
O1425       O  0.58971309  0.66742633  0.43323495    -0.74200
O1426       O  0.53684852  0.64753322  0.04184041    -0.73800
O1427       O  0.68398818  0.68884639  0.02772302    -0.74400
O1428       O  0.69204936  0.57905627  0.03733864    -0.73800
O1429       O  0.67546210  0.62610339  0.42870467    -0.74500
O1430       O  0.68312010  0.62254392  0.06656172    -0.73900
O1431       O  0.68721956  0.58125593  0.45361522    -0.74400
O1432       O  0.60298655  0.55544132  0.49658069    -0.74300
O1433       O  0.54161573  0.58372201  0.00227757    -0.74100
C1434       C  0.54855506  0.66056266  0.43515267     0.77700
C1435       C  0.69600452  0.70063632  0.50012388     0.78200
C1436       C  0.55383168  0.66031332  0.06748034     0.77200
C1437       C  0.69879439  0.59540808  0.06345931     0.77500
C1438       C  0.69105729  0.59887396  0.42852011     0.78700
C1439       C  0.56083801  0.55772256  0.99965913     0.77700
Zn1440     Zn  0.89396196  0.90321529  0.46096746     1.49700
Zn1441     Zn  0.89221814  0.90519244  0.03952788     1.49400
Zn1442     Zn  0.80998454  0.87867241  0.50104518     1.49100
Zn1443     Zn  0.90111771  0.83910212  0.50054647     1.49500
O1444       O  0.87458064  0.88110137  0.50050412    -1.83500
O1445       O  0.93350149  0.93947279  0.47236888    -0.74200
O1446       O  0.84093156  0.91865413  0.06863091    -0.74000
O1447       O  0.78469856  0.89714655  0.45970527    -0.73500
O1448       O  0.92929807  0.94201292  0.02758802    -0.74200
O1449       O  0.84242563  0.91679970  0.43272386    -0.73800
O1450       O  0.78340637  0.89911266  0.04139916    -0.74400
O1451       O  0.85155274  0.80664666  0.50022443    -0.73800
O1452       O  0.92843522  0.87847711  0.06854150    -0.74500
O1453       O  0.78952823  0.83464133  0.50261567    -0.73900
O1454       O  0.93838162  0.83326375  0.04279051    -0.74400
O1455       O  0.93939968  0.83127750  0.45885608    -0.74300
O1456       O  0.92858068  0.87494610  0.43144821    -0.74100
C1457       C  0.94384191  0.95223095  0.50001145     0.77700
C1458       C  0.79940181  0.91330644  0.06653044     0.78200
C1459       C  0.80095402  0.91111724  0.43469201     0.77200
C1460       C  0.80917599  0.80868315  0.50171683     0.77500
C1461       C  0.94420439  0.85130779  0.06773430     0.78700
C1462       C  0.94467992  0.84792749  0.43310232     0.77700
Zn1463     Zn  0.89097282  0.59524665  0.28800887     1.49700
Zn1464     Zn  0.89726599  0.59572132  0.20865157     1.49400
Zn1465     Zn  0.81153209  0.62097676  0.24489297     1.49100
Zn1466     Zn  0.90245604  0.66012023  0.25036854     1.49500
O1467       O  0.87591720  0.61823631  0.24798125    -1.83500
O1468       O  0.92934831  0.55823136  0.27681357    -0.74200
O1469       O  0.84725157  0.58075427  0.17801480    -0.74000
O1470       O  0.78192354  0.60344554  0.28537112    -0.73500
O1471       O  0.93804022  0.56058811  0.22174400    -0.74200
O1472       O  0.83675675  0.58247927  0.31418546    -0.73800
O1473       O  0.78828230  0.60029003  0.20377121    -0.74400
O1474       O  0.85338185  0.69250994  0.25097528    -0.73800
O1475       O  0.93214250  0.62466293  0.18076952    -0.74500
O1476       O  0.79191358  0.66498399  0.24239549    -0.73900
O1477       O  0.94120971  0.66839822  0.20948395    -0.74400
O1478       O  0.93872131  0.66624799  0.29281821    -0.74300
O1479       O  0.92513220  0.62253540  0.31956462    -0.74100
C1480       C  0.94645312  0.54816800  0.24971298     0.77700
C1481       C  0.80546778  0.58591860  0.17916236     0.78200
C1482       C  0.79572856  0.58915405  0.31090003     0.77200
C1483       C  0.81143321  0.69074762  0.24640384     0.77500
C1484       C  0.94753150  0.65186336  0.18345532     0.78700
C1485       C  0.94234975  0.64930625  0.31845668     0.77700
Zn1486     Zn  0.64660321  0.84562802  0.28902168     1.49700
Zn1487     Zn  0.56308178  0.87170315  0.25150385     1.49400
Zn1488     Zn  0.65378482  0.91150153  0.25115696     1.50700
Zn1489     Zn  0.64601676  0.84713311  0.21028426     1.49500
O1490       O  0.62764663  0.86927489  0.25050582    -1.83500
O1491       O  0.59529736  0.83234137  0.31863108    -0.74200
O1492       O  0.54321056  0.91578460  0.25288162    -0.74000
O1493       O  0.68992291  0.91861337  0.29341835    -0.73500
O1494       O  0.53720884  0.85217923  0.29254561    -0.74200
O1495       O  0.68158180  0.87334417  0.31836956    -0.73800
O1496       O  0.60484029  0.94393944  0.25066714    -0.74400
O1497       O  0.68130785  0.87557480  0.18190981    -0.73800
O1498       O  0.53675060  0.85365752  0.20968776    -0.74500
O1499       O  0.69184561  0.91939261  0.21008080    -0.73900
O1500       O  0.59425928  0.83541979  0.18102822    -0.74400
O1501       O  0.68345539  0.80958038  0.22051337    -0.74300
O1502       O  0.68560686  0.80934400  0.27588207    -0.74100
C1503       C  0.55378481  0.83821484  0.31740828     0.77700
C1504       C  0.56252607  0.94185236  0.25187998     0.78200
C1505       C  0.69593721  0.90088764  0.31815793     0.77200
C1506       C  0.69699427  0.90274209  0.18403988     0.77500
C1507       C  0.55281049  0.84098334  0.18352797     0.78700
C1508       C  0.69690379  0.79788327  0.24772828     0.77700
C1509       C  0.97670530  0.52138283  0.25082423    -0.04900
C1510       C  0.51810455  0.52234017  0.23450954    -0.32300
C1511       C  0.54732379  0.49710603  0.23563507     0.36900
C1512       C  0.53449910  0.96997992  0.25223319    -0.05200
C1513       C  0.99301394  0.96920453  0.26849485    -0.32200
C1514       C  0.96451351  0.99468185  0.26818817     0.36900
H1515       H  0.52800375  0.54284031  0.22117864     0.17200
O1516       O  0.58733647  0.49873152  0.21921022    -0.59700
H1517       H  0.98255125  0.94869604  0.28157178     0.17200
O1518       O  0.92431912  0.99300462  0.28436625    -0.59800
H1519       H  0.90307132  0.98508396  0.26744867     0.44200
H1520       H  0.60804707  0.50876512  0.23526904     0.44200
C1521       C  0.78413799  0.71901473  0.24593741    -0.04900
C1522       C  0.75142464  0.72240152  0.22130174    -0.32300
C1523       C  0.72324162  0.74812002  0.22129384     0.36900
C1524       C  0.72677484  0.77067931  0.24670039    -0.05200
C1525       C  0.75943124  0.76712903  0.27145596    -0.32200
C1526       C  0.78841774  0.74179978  0.27089849     0.36900
H1527       H  0.74768798  0.70498483  0.20196761     0.17200
O1528       O  0.69179434  0.75062225  0.19671146    -0.59700
H1529       H  0.76275511  0.78419412  0.29118402     0.17200
O1530       O  0.81918957  0.73867281  0.29586058    -0.59800
H1531       H  0.84555073  0.75054935  0.28837086     0.44200
H1532       H  0.66529238  0.73958117  0.20526004     0.44200
C1533       C  0.96977471  0.83657557  0.40382394    -0.04900
C1534       C  0.51439976  0.82764346  0.40689149    -0.32300
C1535       C  0.54191055  0.82536281  0.37854362     0.36900
C1536       C  0.52445397  0.83168112  0.34654069    -0.05200
C1537       C  0.97846526  0.83708117  0.34358018    -0.32200
C1538       C  0.95141411  0.83989308  0.37183102     0.36900
H1539       H  0.52888745  0.82490461  0.43140213     0.17200
O1540       O  0.58623217  0.81885453  0.38270562    -0.59700
H1541       H  0.96376164  0.84127740  0.31940520     0.17200
O1542       O  0.90717672  0.84701818  0.36804531    -0.59800
H1543       H  0.90634705  0.86948918  0.36386073     0.44200
H1544       H  0.59947242  0.83796029  0.39218583     0.44200
C1545       C  0.96895871  0.84125139  0.09732792    -0.04900
C1546       C  0.51214115  0.82930607  0.09440041    -0.32300
C1547       C  0.53944179  0.82680358  0.12267071     0.36900
C1548       C  0.52298936  0.83570555  0.15447395    -0.05200
C1549       C  0.97819039  0.84470896  0.15732786    -0.32200
C1550       C  0.95154037  0.84781983  0.12918254     0.36900
H1551       H  0.52585835  0.82412494  0.06998679     0.17200
O1552       O  0.58264583  0.81719205  0.11857984    -0.59700
H1553       H  0.96432468  0.85141430  0.18126416     0.17200
O1554       O  0.90917359  0.85922012  0.13289777    -0.59800
H1555       H  0.88964764  0.84083992  0.13358286     0.44200
H1556       H  0.59923680  0.83567685  0.11111216     0.44200
C1557       C  0.71904904  0.91184634  0.34823157    -0.04900
C1558       C  0.76178481  0.92461204  0.34620318    -0.32300
C1559       C  0.78810094  0.92758051  0.37493144     0.36900
C1560       C  0.77132842  0.91774760  0.40608802    -0.05200
C1561       C  0.72651093  0.90873673  0.40825621    -0.32200
C1562       C  0.70075648  0.90525854  0.37964322     0.36900
H1563       H  0.77602428  0.93000231  0.32211944     0.17200
O1564       O  0.83117621  0.93760489  0.37167941    -0.59700
H1565       H  0.71219266  0.90186267  0.43185145     0.17200
O1566       O  0.65825039  0.89393413  0.38241009    -0.59800
H1567       H  0.66190567  0.87141938  0.38560528     0.44200
H1568       H  0.82960405  0.96029025  0.37446350     0.44200
C1569       C  0.76992474  0.92042167  0.09537598    -0.04900
C1570       C  0.78886243  0.92834240  0.12646364    -0.32300
C1571       C  0.76408150  0.92570504  0.15599364     0.36900
C1572       C  0.72015232  0.91468348  0.15454439    -0.05200
C1573       C  0.69970603  0.91054426  0.12347655    -0.32200
C1574       C  0.72397535  0.91361069  0.09400448     0.36900
H1575       H  0.82385619  0.93418179  0.12825946     0.17200
O1576       O  0.78451512  0.93065571  0.18610259    -0.59700
H1577       H  0.66531515  0.90302333  0.12209301     0.17200
O1578       O  0.70293568  0.90823077  0.06416122    -0.59800
H1579       H  0.69927007  0.88554966  0.06257531     0.44200
H1580       H  0.77893093  0.95265271  0.19151896     0.44200
C1581       C  0.96713148  0.66026149  0.34796472    -0.04900
C1582       C  0.94713060  0.65815400  0.37946737    -0.32300
C1583       C  0.97239921  0.66169040  0.40856566     0.36900
C1584       C  0.51878381  0.66671495  0.40636688    -0.05200
C1585       C  0.53768746  0.67195811  0.37474243    -0.32200
C1586       C  0.51211034  0.66891266  0.34568192     0.36900
H1587       H  0.91213067  0.65234154  0.38151596     0.17200
O1588       O  0.95170397  0.65915130  0.43895222    -0.59700
H1589       H  0.57312076  0.67604302  0.37223903     0.17200
O1590       O  0.53252452  0.67112565  0.31520249    -0.59800
H1591       H  0.52874602  0.69291286  0.30865324     0.44200
H1592       H  0.94571949  0.63686881  0.44171462     0.44200
C1593       C  0.97243364  0.66373456  0.15474716    -0.04900
C1594       C  0.95250739  0.66144099  0.12330398    -0.32300
C1595       C  0.97799283  0.66352476  0.09427853     0.36900
C1596       C  0.52460013  0.66757292  0.09645392    -0.05200
C1597       C  0.54361362  0.67331957  0.12803007    -0.32200
C1598       C  0.51770916  0.67155588  0.15710929     0.36900
H1599       H  0.91737623  0.65597770  0.12124919     0.17200
O1600       O  0.95722674  0.65998142  0.06402805    -0.59700
H1601       H  0.57918364  0.67680551  0.13047741     0.17200
O1602       O  0.53791694  0.67408969  0.18762766    -0.59800
H1603       H  0.53428737  0.69600839  0.19426841     0.44200
H1604       H  0.95108636  0.63758988  0.06175743     0.44200
C1605       C  0.71368478  0.58833088  0.39787047    -0.04900
C1606       C  0.69533742  0.59659764  0.36711190    -0.32300
C1607       C  0.71993029  0.59368290  0.33771228     0.36900
C1608       C  0.76443585  0.58317322  0.33886736    -0.05200
C1609       C  0.78093021  0.57179039  0.36925328    -0.32200
C1610       C  0.75566206  0.57408701  0.39861393     0.36900
H1611       H  0.66247203  0.60688621  0.36609345     0.17200
O1612       O  0.70122111  0.60364960  0.30857413    -0.59700
H1613       H  0.81467160  0.56311294  0.37085497     0.17200
O1614       O  0.77422704  0.56546784  0.42829388    -0.59800
H1615       H  0.76740290  0.54321565  0.43029517     0.44200
H1616       H  0.68779951  0.58499587  0.29824780     0.44200
C1617       C  0.77655550  0.57832708  0.15006671    -0.04900
C1618       C  0.79566144  0.57345781  0.11831319    -0.32300
C1619       C  0.76973572  0.57593280  0.08927703     0.36900
C1620       C  0.72424053  0.58326454  0.09188132    -0.05200
C1621       C  0.70431143  0.58447594  0.12344552    -0.32200
C1622       C  0.72984128  0.58179436  0.15237103     0.36900
H1623       H  0.83129257  0.57030317  0.11576482     0.17200
O1624       O  0.78982292  0.57365542  0.05862724    -0.59700
H1625       H  0.66905299  0.58945518  0.12574875     0.17200
O1626       O  0.70898556  0.58410754  0.18277239    -0.59800
H1627       H  0.70157799  0.60625839  0.18565228     0.44200
H1628       H  0.80049642  0.59472417  0.05363965     0.44200
C1629       C  0.53285945  0.52984072  0.50039092    -0.04900
C1630       C  0.99850063  0.52800128  0.02402514    -0.32300
C1631       C  0.96951222  0.50279659  0.02431597     0.36900
C1632       C  0.97398408  0.97915655  0.50019976    -0.05200
C1633       C  0.50820857  0.98113172  0.47636411    -0.32200
C1634       C  0.53799641  0.00600686  0.47668214     0.36900
H1635       H  0.49411611  0.54624231  0.04237982     0.17200
O1636       O  0.93648171  0.50178846  0.04794792    -0.59700
H1637       H  0.01222597  0.96314837  0.45767932     0.17200
O1638       O  0.57052228  0.00759816  0.45272297    -0.59800
H1639       H  0.59553174  0.99505284  0.46137908     0.44200
H1640       H  0.91057839  0.51218782  0.03770072     0.44200
C1641       C  0.78164053  0.78045707  0.50218831    -0.04900
C1642       C  0.78679443  0.75800451  0.47710962    -0.32300
C1643       C  0.75860720  0.73221030  0.47574008     0.36900
C1644       C  0.72576016  0.72794172  0.50049742    -0.05200
C1645       C  0.72147544  0.75010393  0.02604898    -0.32200
C1646       C  0.74841278  0.77649207  0.02659577     0.36900
H1647       H  0.81195877  0.76089826  0.45800244     0.17200
O1648       O  0.76439920  0.71083165  0.45070786    -0.59700
H1649       H  0.69647078  0.74730456  0.04529021     0.17200
O1650       O  0.74289398  0.79788467  0.05165758    -0.59800
H1651       H  0.71804370  0.81123047  0.04423587     0.44200
H1652       H  0.74782333  0.71905895  0.43142424     0.44200
Zn1653     Zn  0.56153213  0.62755380  0.50073358     1.49700
Zn1654     Zn  0.64275026  0.65350609  0.96026241     1.49400
Zn1655     Zn  0.64651257  0.65149707  0.53933911     1.49100
Zn1656     Zn  0.65240817  0.58759334  0.99681995     1.49500
O1657       O  0.62616922  0.62972304  0.49935485    -1.83500
O1658       O  0.53342390  0.64569714  0.95990360    -0.74200
O1659       O  0.68287248  0.68947591  0.97231280    -0.74000
O1660       O  0.59572384  0.66437813  0.56968505    -0.73500
O1661       O  0.58971388  0.66742919  0.93323354    -0.74200
O1662       O  0.53684599  0.64753122  0.54184028    -0.73800
O1663       O  0.68398789  0.68884264  0.52772539    -0.74400
O1664       O  0.69205039  0.57905429  0.53734083    -0.73800
O1665       O  0.67546300  0.62610614  0.92870337    -0.74500
O1666       O  0.68311628  0.62254130  0.56656406    -0.73900
O1667       O  0.68721979  0.58125850  0.95361365    -0.74400
O1668       O  0.60298523  0.55544464  0.99657857    -0.74300
O1669       O  0.54161626  0.58371798  0.50227947    -0.74100
C1670       C  0.54855544  0.66056702  0.93515218     0.77700
C1671       C  0.69600445  0.70063969  0.00012114     0.78200
C1672       C  0.55382964  0.66031265  0.56747930     0.77200
C1673       C  0.69879264  0.59540603  0.56346198     0.77500
C1674       C  0.69105819  0.59887674  0.92851878     0.78700
C1675       C  0.56083924  0.55771873  0.49966116     0.77700
Zn1676     Zn  0.89396311  0.90321836  0.96096816     1.49700
Zn1677     Zn  0.89221767  0.90518966  0.53952725     1.49400
Zn1678     Zn  0.80998468  0.87867634  0.00104421     1.49100
Zn1679     Zn  0.90111763  0.83910496  0.00054673     1.49500
O1680       O  0.87458102  0.88110445  0.00050444    -1.83500
O1681       O  0.93350127  0.93947605  0.97236995    -0.74200
O1682       O  0.84093145  0.91865311  0.56862958    -0.74000
O1683       O  0.78469924  0.89715117  0.95970411    -0.73500
O1684       O  0.92929857  0.94200927  0.52758697    -0.74200
O1685       O  0.84242827  0.91680207  0.93272321    -0.73800
O1686       O  0.78340629  0.89911040  0.54139896    -0.74400
O1687       O  0.85155184  0.80664998  0.00022232    -0.73800
O1688       O  0.92843401  0.87847449  0.56854138    -0.74500
O1689       O  0.78952794  0.83464540  0.00261239    -0.73900
O1690       O  0.93838326  0.83326192  0.54278927    -0.74400
O1691       O  0.93940096  0.83128081  0.95885688    -0.74300
O1692       O  0.92858289  0.87494977  0.93144949    -0.74100
C1693       C  0.94384133  0.95223453  0.00001241     0.77700
C1694       C  0.79940169  0.91330551  0.56652935     0.78200
C1695       C  0.80095638  0.91112058  0.93469059     0.77200
C1696       C  0.80917504  0.80868701  0.00171338     0.77500
C1697       C  0.94420477  0.85130563  0.56773344     0.78700
C1698       C  0.94468188  0.84793115  0.93310344     0.77700
Zn1699     Zn  0.89097616  0.59525216  0.78800829     1.49700
Zn1700     Zn  0.89726712  0.59572627  0.70865104     1.49400
Zn1701     Zn  0.81153503  0.62098246  0.74489327     1.49100
Zn1702     Zn  0.90245818  0.66012564  0.75036790     1.49500
O1703       O  0.87591978  0.61824165  0.74798089    -1.83500
O1704       O  0.92935222  0.55823720  0.77681265    -0.74200
O1705       O  0.84725175  0.58075753  0.67801607    -0.74000
O1706       O  0.78192759  0.60345193  0.78537168    -0.73500
O1707       O  0.93804297  0.56059365  0.72174298    -0.74200
O1708       O  0.83676046  0.58248425  0.81418514    -0.73800
O1709       O  0.78828396  0.60029464  0.70377298    -0.74400
O1710       O  0.85338429  0.69251549  0.75097493    -0.73800
O1711       O  0.93214103  0.62466829  0.68076770    -0.74500
O1712       O  0.79191631  0.66498940  0.74239493    -0.73900
O1713       O  0.94120998  0.66840323  0.70948263    -0.74400
O1714       O  0.93872420  0.66625395  0.79281718    -0.74300
O1715       O  0.92513487  0.62254146  0.81956370    -0.74100
C1716       C  0.94645654  0.54817367  0.74971193     0.77700
C1717       C  0.80546806  0.58592202  0.67916445     0.78200
C1718       C  0.79573243  0.58915969  0.81090010     0.77200
C1719       C  0.81143574  0.69075306  0.74640327     0.77500
C1720       C  0.94753021  0.65186865  0.68345359     0.78700
C1721       C  0.94235226  0.64931238  0.81845580     0.77700
Zn1722     Zn  0.64660307  0.84563204  0.78902092     1.49700
Zn1723     Zn  0.56308123  0.87170762  0.75150287     1.49400
Zn1724     Zn  0.65378561  0.91150495  0.75115556     1.50700
Zn1725     Zn  0.64601654  0.84713654  0.71028392     1.49500
O1726       O  0.62764629  0.86927877  0.75050503    -1.83500
O1727       O  0.59529734  0.83234604  0.81863020    -0.74200
O1728       O  0.54321128  0.91578951  0.75288052    -0.74000
O1729       O  0.68992503  0.91861629  0.79341639    -0.73500
O1730       O  0.53720834  0.85218412  0.79254535    -0.74200
O1731       O  0.68158243  0.87334778  0.81836880    -0.73800
O1732       O  0.60484197  0.94394347  0.75066591    -0.74400
O1733       O  0.68130671  0.87557764  0.68190836    -0.73800
O1734       O  0.53675001  0.85366172  0.70968633    -0.74500
O1735       O  0.69184571  0.91939542  0.71007903    -0.73900
O1736       O  0.59425950  0.83542245  0.68102879    -0.74400
O1737       O  0.68345548  0.80958421  0.72051295    -0.74300
O1738       O  0.68560644  0.80934780  0.77588162    -0.74100
C1739       C  0.55378488  0.83821980  0.81740793     0.77700
C1740       C  0.56252769  0.94185698  0.75187883     0.78200
C1741       C  0.69593914  0.90089090  0.81815628     0.77200
C1742       C  0.69699350  0.90274481  0.68403811     0.77500
C1743       C  0.55281080  0.84098647  0.68352739     0.78700
C1744       C  0.69690374  0.79788717  0.74772789     0.77700
C1745       C  0.97670831  0.52138816  0.75082300    -0.04900
C1746       C  0.51810556  0.52234377  0.73450469    -0.32300
C1747       C  0.54732430  0.49710930  0.73563005     0.36900
C1748       C  0.53450178  0.96998499  0.75223221    -0.05200
C1749       C  0.99301751  0.96921064  0.76849608    -0.32200
C1750       C  0.96451795  0.99468845  0.76818969     0.36900
H1751       H  0.52800315  0.54284259  0.72117079     0.17200
O1752       O  0.58733429  0.49873270  0.71920125    -0.59700
H1753       H  0.98255578  0.94870305  0.78157507     0.17200
O1754       O  0.92432547  0.99301274  0.78437064    -0.59800
H1755       H  0.90307567  0.98509087  0.76745532     0.44200
H1756       H  0.60804777  0.50876712  0.73525698     0.44200
C1757       C  0.78414027  0.71902001  0.74593666    -0.04900
C1758       C  0.75142661  0.72240628  0.72130114    -0.32300
C1759       C  0.72324266  0.74812426  0.72129345     0.36900
C1760       C  0.72677536  0.77068357  0.74669999    -0.05200
C1761       C  0.75943220  0.76713390  0.77145534    -0.32200
C1762       C  0.78841955  0.74180513  0.77089770     0.36900
H1763       H  0.74769033  0.70498950  0.70196705     0.17200
O1764       O  0.69179487  0.75062591  0.69671134    -0.59700
H1765       H  0.76275572  0.78419905  0.79118335     0.17200
O1766       O  0.81919178  0.73867866  0.79585963    -0.59800
H1767       H  0.84555154  0.75055564  0.78837026     0.44200
H1768       H  0.66529373  0.73958408  0.70525996     0.44200
C1769       C  0.96977682  0.83657955  0.90382509    -0.04900
C1770       C  0.51440290  0.82764980  0.90689208    -0.32300
C1771       C  0.54191315  0.82536973  0.87854391     0.36900
C1772       C  0.52445513  0.83168631  0.84654099    -0.05200
C1773       C  0.97846557  0.83708419  0.84358112    -0.32200
C1774       C  0.95141494  0.83989546  0.87183234     0.36900
H1775       H  0.52889146  0.82491229  0.93140263     0.17200
O1776       O  0.58623548  0.81886366  0.88270550    -0.59700
H1777       H  0.96376093  0.84127901  0.81940617     0.17200
O1778       O  0.90717674  0.84701825  0.86804721    -0.59800
H1779       H  0.90634464  0.86948986  0.86386254     0.44200
H1780       H  0.59947390  0.83797040  0.89218753     0.44200
C1781       C  0.96896001  0.84124945  0.59732648    -0.04900
C1782       C  0.51214587  0.82931056  0.59439877    -0.32300
C1783       C  0.53944669  0.82680981  0.62266901     0.36900
C1784       C  0.52299121  0.83570730  0.65447285    -0.05200
C1785       C  0.97818944  0.84470420  0.65732676    -0.32200
C1786       C  0.95153910  0.84781338  0.62918130     0.36900
H1787       H  0.52586509  0.82413333  0.56998485     0.17200
O1788       O  0.58265384  0.81720517  0.61857747    -0.59700
H1789       H  0.96432160  0.85140599  0.68126349     0.17200
O1790       O  0.90916903  0.85920781  0.63289667    -0.59800
H1791       H  0.88964857  0.84082528  0.63358070     0.44200
H1792       H  0.59923926  0.83569331  0.61111308     0.44200
C1793       C  0.71905268  0.91184966  0.84822909    -0.04900
C1794       C  0.76179153  0.92461013  0.84619963    -0.32300
C1795       C  0.78810797  0.92757830  0.87492770     0.36900
C1796       C  0.77133257  0.91775062  0.90608545    -0.05200
C1797       C  0.72651314  0.90874446  0.90825421    -0.32200
C1798       C  0.70075834  0.90526634  0.87964129     0.36900
H1799       H  0.77603272  0.92999631  0.82211533     0.17200
O1800       O  0.83118606  0.93759654  0.87167449    -0.59700
H1801       H  0.71219309  0.90187411  0.93185015     0.17200
O1802       O  0.65824989  0.89394639  0.88240889    -0.59800
H1803       H  0.66190056  0.87143136  0.88560561     0.44200
H1804       H  0.82962007  0.96028286  0.87445546     0.44200
C1805       C  0.76992453  0.92042238  0.59537428    -0.04900
C1806       C  0.78886224  0.92834335  0.62646183    -0.32300
C1807       C  0.76408105  0.92570677  0.65599174     0.36900
C1808       C  0.72015156  0.91468583  0.65454249    -0.05200
C1809       C  0.69970524  0.91054668  0.62347465    -0.32200
C1810       C  0.72397484  0.91361242  0.59400262     0.36900
H1811       H  0.82385621  0.93418206  0.62825770     0.17200
O1812       O  0.78451477  0.93065722  0.68610066    -0.59700
H1813       H  0.66531411  0.90302628  0.62209110     0.17200
O1814       O  0.70293518  0.90823283  0.56415926    -0.59800
H1815       H  0.69926783  0.88555205  0.56257367     0.44200
H1816       H  0.77893037  0.95265437  0.69151730     0.44200
C1817       C  0.96713272  0.66026786  0.84796437    -0.04900
C1818       C  0.94713195  0.65815749  0.87946680    -0.32300
C1819       C  0.97240001  0.66169331  0.90856538     0.36900
C1820       C  0.51878362  0.66672014  0.90636689    -0.05200
C1821       C  0.53768657  0.67196690  0.87474291    -0.32200
C1822       C  0.51210980  0.66892216  0.84568212     0.36900
H1823       H  0.91213265  0.65234300  0.88151490     0.17200
O1824       O  0.95170479  0.65915096  0.93895162    -0.59700
H1825       H  0.57311934  0.67605421  0.87223989     0.17200
O1826       O  0.53252355  0.67113903  0.81520287    -0.59800
H1827       H  0.52874421  0.69292635  0.80865666     0.44200
H1828       H  0.94572290  0.63686813  0.94171218     0.44200
C1829       C  0.97243252  0.66373981  0.65474569    -0.04900
C1830       C  0.95250528  0.66144915  0.62330260    -0.32300
C1831       C  0.97799099  0.66353140  0.59427704     0.36900
C1832       C  0.52459900  0.66757473  0.59645246    -0.05200
C1833       C  0.54361367  0.67331918  0.62802861    -0.32200
C1834       C  0.51770926  0.67155694  0.65710776     0.36900
H1835       H  0.91737309  0.65598902  0.62124793     0.17200
O1836       O  0.95722437  0.65999130  0.56402637    -0.59700
H1837       H  0.57918435  0.67680171  0.63047600     0.17200
O1838       O  0.53791796  0.67408758  0.68762611    -0.59800
H1839       H  0.53429223  0.69600586  0.69426813     0.44200
H1840       H  0.95107841  0.63760031  0.56175507     0.44200
C1841       C  0.71368653  0.58833407  0.89786936    -0.04900
C1842       C  0.69533993  0.59660144  0.86711078    -0.32300
C1843       C  0.71993372  0.59368783  0.83771154     0.36900
C1844       C  0.76443943  0.58317844  0.83886703    -0.05200
C1845       C  0.78093318  0.57179503  0.86925284    -0.32200
C1846       C  0.75566412  0.57409064  0.89861314     0.36900
H1847       H  0.66247441  0.60688980  0.86609209     0.17200
O1848       O  0.70122527  0.60365538  0.80857349    -0.59700
H1849       H  0.81467469  0.56311785  0.87085478     0.17200
O1850       O  0.77422839  0.56547091  0.92829315    -0.59800
H1851       H  0.76740773  0.54321807  0.93029242     0.44200
H1852       H  0.68780520  0.58500150  0.79824563     0.44200
C1853       C  0.77655414  0.57832914  0.65007012    -0.04900
C1854       C  0.79565850  0.57345496  0.61831691    -0.32300
C1855       C  0.76973226  0.57592831  0.58928079     0.36900
C1856       C  0.72423817  0.58326347  0.59188488    -0.05200
C1857       C  0.70431018  0.58447949  0.62344931    -0.32200
C1858       C  0.72984040  0.58179958  0.65237476     0.36900
H1859       H  0.83128910  0.57029760  0.61576838     0.17200
O1860       O  0.78981820  0.57364590  0.55863096    -0.59700
H1861       H  0.66905246  0.58946123  0.62575255     0.17200
O1862       O  0.70898568  0.58411768  0.68277610    -0.59800
H1863       H  0.70158151  0.60626960  0.68565320     0.44200
H1864       H  0.80049638  0.59471346  0.55364082     0.44200
C1865       C  0.53285761  0.52984484  0.00038911    -0.04900
C1866       C  0.99850158  0.52799705  0.52402628    -0.32300
C1867       C  0.96951294  0.50279247  0.52431628     0.36900
C1868       C  0.97398325  0.97916022  0.00020018    -0.05200
C1869       C  0.50820631  0.98113559  0.97636335    -0.32200
C1870       C  0.53799398  0.00601080  0.97668062     0.36900
H1871       H  0.49411656  0.54623814  0.54238091     0.17200
O1872       O  0.93648198  0.50178413  0.54794784    -0.59700
H1873       H  0.01222376  0.96315189  0.95767909     0.17200
O1874       O  0.57051896  0.00760207  0.95272077    -0.59800
H1875       H  0.59552858  0.99505682  0.96137628     0.44200
H1876       H  0.91057938  0.51218528  0.53770102     0.44200
C1877       C  0.78163871  0.78046130  0.00218400    -0.04900
C1878       C  0.78679401  0.75800801  0.97710622    -0.32300
C1879       C  0.75860702  0.73221361  0.97573690     0.36900
C1880       C  0.72575916  0.72794556  0.00049379    -0.05200
C1881       C  0.72147845  0.75009900  0.52605401    -0.32200
C1882       C  0.74841631  0.77648693  0.52660121     0.36900
H1883       H  0.81195941  0.76090119  0.95799973     0.17200
O1884       O  0.76440026  0.71083421  0.95070561    -0.59700
H1885       H  0.69647487  0.74729902  0.54529590     0.17200
O1886       O  0.74289960  0.79787847  0.55166435    -0.59800
H1887       H  0.71804860  0.81122453  0.54424457     0.44200
H1888       H  0.74782503  0.71906117  0.93142085     0.44200
loop_ 
_geom_bond_atom_site_label_1 
_geom_bond_atom_site_label_2 
_geom_bond_distance 
_geom_bond_site_symmetry_2 
_ccdc_geom_bond_type 
Zn1           O5   1.944   1_554  S
Zn1          O10   1.997       .  S
Zn1          O17   1.996       .  S
Zn1         O242   2.011   1_554  S
Zn2         O241   1.950       .  S
Zn2           O7   2.027       .  S
Zn2           O9   2.024       .  S
Zn2          O13   1.987       .  S
Zn3           O5   1.953   1_554  S
Zn3           O8   2.025       .  S
Zn3          O11   2.030       .  S
Zn3          O14   2.003       .  S
Zn4         O241   1.993       .  S
Zn4          O15   2.039       .  S
Zn4          O16   2.037       .  S
Zn4         O248   2.053       .  S
O5         Zn238   1.950       .  S
O5         Zn240   1.993       .  S
O6         Zn237   2.011       .  S
O6           C18   1.273       .  A
O7           C19   1.275       .  A
O8           C20   1.273       .  A
O9           C18   1.274       .  A
O10          C20   1.272       .  A
O11         C255   1.276       .  A
O12        Zn240   2.053   1_554  S
O12          C21   1.277       .  A
O13          C22   1.271       .  A
O14          C21   1.273       .  A
O15          C22   1.275       .  A
O16         C259   1.275       .  A
O17          C23   1.271   1_554  A
C18         C168   1.488       .  S
C19         O247   1.276       .  A
C19         C228   1.484       .  S
C20         C180   1.487       .  S
C21         C204   1.475       .  S
C22         C189   1.473       .  S
C23         O252   1.275       .  A
C23         C449   1.473   1_556  S
Zn24         O28   1.950       .  S
Zn24         O29   2.020       .  S
Zn24         O33   2.011       .  S
Zn24         O40   1.989       .  S
Zn25        O264   1.948       .  S
Zn25         O30   2.014       .  S
Zn25         O32   2.009       .  S
Zn25         O36   1.978       .  S
Zn26         O28   1.943       .  S
Zn26         O31   2.000       .  S
Zn26         O37   2.009       .  S
Zn26        O270   2.003       .  S
Zn27         O28   1.989       .  S
Zn27         O35   2.049       .  S
Zn27         O39   2.054       .  S
Zn27        O274   2.050       .  S
O28        Zn261   1.948       .  S
O29          C41   1.274       .  A
O30          C42   1.271       .  A
O31          C43   1.274       .  A
O32         C277   1.272       .  A
O33          C43   1.272       .  A
O34        Zn262   2.003       .  S
O34          C42   1.271       .  A
O35          C44   1.277       .  A
O36          C45   1.271       .  A
O37          C44   1.272       .  A
O38        Zn263   2.050       .  S
O38          C45   1.277       .  A
O39          C46   1.276       .  A
O40          C46   1.271       .  A
C41         O268   1.272       .  A
C41         C216   1.478       .  S
C42         C153   1.486       .  S
C43         C144   1.484       .  S
C44         C225   1.478       .  S
C45         C129   1.472       .  S
C46         C117   1.475       .  S
Zn47         O51   1.952       .  S
Zn47         O52   2.024       .  S
Zn47         O56   2.016       .  S
Zn47         O63   2.008       .  S
Zn48         O51   1.955       .  S
Zn48         O53   2.044       .  S
Zn48         O55   2.029       .  S
Zn48         O59   1.987       .  S
Zn49         O51   1.941       .  S
Zn49         O54   2.006       .  S
Zn49         O57   1.998       .  S
Zn49         O60   2.002       .  S
Zn50         O51   1.986       .  S
Zn50         O58   2.037       .  S
Zn50         O61   2.044       .  S
Zn50         O62   2.038       .  S
O52          C64   1.275       .  A
O53          C65   1.275       .  A
O54          C66   1.273       .  A
O55          C64   1.275       .  A
O56          C66   1.273       .  A
O57          C65   1.272       .  A
O58          C67   1.275       .  A
O59          C68   1.271       .  A
O60          C67   1.271       .  A
O61          C68   1.275       .  A
O62          C69   1.275       .  A
O63          C69   1.273       .  A
C64          C93   1.476       .  S
C65         C201   1.490       .  S
C66         C192   1.487       .  S
C67         C105   1.476       .  S
C68         C177   1.470       .  S
C69         C165   1.474       .  S
Zn70         O74   1.949       .  S
Zn70         O75   2.031       .  S
Zn70         O79   1.978       .  S
Zn70         O86   2.028       .  S
Zn71         O74   1.942       .  S
Zn71         O76   2.004       .  S
Zn71         O78   2.014       .  S
Zn71         O82   2.008       .  S
Zn72         O74   1.993       .  S
Zn72         O77   2.036       .  S
Zn72         O80   2.036       .  S
Zn72         O83   2.036       .  S
Zn73         O74   1.949       .  S
Zn73         O81   1.991       .  S
Zn73         O84   2.012       .  S
Zn73         O85   2.026       .  S
O75          C87   1.273       .  A
O76          C88   1.272       .  A
O77          C89   1.275       .  A
O78          C87   1.274       .  A
O79          C89   1.271       .  A
O80          C88   1.275       .  A
O81          C90   1.272       .  A
O82          C91   1.274       .  A
O83          C90   1.274       .  A
O84          C91   1.271       .  A
O85          C92   1.275       .  A
O86          C92   1.275       .  A
C87         C120   1.492       .  S
C88          C96   1.483       .  S
C89         C141   1.468       .  S
C90         C156   1.470       .  S
C91         C132   1.487       .  S
C92         C108   1.483       .  S
C93        C1038   1.405       .  A
C93         C570   1.406   1_545  A
C94          C95   1.404   1_545  A
C94        C1037   1.405   1_455  A
C94          H99   1.084       .  S
C95         C568   1.411       .  A
C95         O100   1.371       .  S
C96         C567   1.411       .  A
C96        C1041   1.406   1_455  A
C97          C98   1.398       .  A
C97        C1040   1.406       .  A
C97         H101   1.084       .  S
C98         C565   1.406       .  A
C98         O102   1.372       .  S
O100        H104   0.994   1_565  S
O102        H103   0.991       .  S
C105        C106   1.403       .  A
C105        C110   1.407       .  A
C106        C107   1.401       .  A
C106        H111   1.084       .  S
C107        C108   1.411       .  A
C107        O112   1.372       .  S
C108        C109   1.406       .  A
C109        C110   1.402       .  A
C109        H113   1.084       .  S
C110        O114   1.372       .  S
O112        H116   0.991       .  S
O114        H115   0.992       .  S
C117        C122   1.407       .  A
C117       C1062   1.401       .  A
C118        C119   1.407       .  A
C118       C1061   1.401   1_455  A
C118        H123   1.084       .  S
C119        C120   1.417       .  A
C119        O124   1.371       .  S
C120       C1065   1.406   1_455  A
C121        C122   1.398       .  A
C121       C1064   1.406       .  A
C121        H125   1.083       .  S
C122        O126   1.373       .  S
O124        H128   0.992       .  S
O126        H127   0.991       .  S
C129        C134   1.407       .  A
C129       C1074   1.401       .  A
C130        C131   1.406       .  A
C130       C1073   1.401   1_455  A
C130        H135   1.084       .  S
C131        C132   1.418       .  A
C131        O136   1.372       .  S
C132       C1077   1.405   1_455  A
C133        C134   1.393       .  A
C133       C1076   1.405       .  A
C133        H137   1.083       .  S
C134        O138   1.372       .  S
O136        H140   0.993       .  S
O138        H139   0.990       .  S
C141        C142   1.400       .  A
C141        C146   1.406       .  A
C142        C143   1.404       .  A
C142        H147   1.084       .  S
C143        C144   1.416       .  A
C143        O148   1.371       .  S
C144        C145   1.404       .  A
C145        C146   1.392       .  A
C145        H149   1.084       .  S
C146        O150   1.372       .  S
O148        H152   0.991       .  S
O150        H151   0.993       .  S
C153        C154   1.411       .  A
C153        C158   1.412       .  A
C154        C155   1.404       .  A
C154        H159   1.083       .  S
C155        C156   1.404       .  A
C155        O160   1.371       .  S
C156        C157   1.400       .  A
C157        C158   1.395       .  A
C157        H161   1.084       .  S
C158        O162   1.373       .  S
O160        H164   0.991       .  S
O162        H163   0.992       .  S
C165        C166   1.402       .  A
C165       C1114   1.405       .  A
C166        C167   1.401       .  A
C166        H171   1.084       .  S
C167       C1112   1.412       .  A
C167        O172   1.373       .  S
C168        C169   1.410       .  A
C168       C1111   1.412   1_455  A
C169        C170   1.402       .  A
C169        H173   1.083       .  S
C170       C1109   1.405   1_455  A
C170        O174   1.371       .  S
O172        H176   0.991       .  S
O174        H175   0.990       .  S
C177        C178   1.400       .  A
C177       C1126   1.404       .  A
C178        C179   1.396       .  A
C178        H183   1.084       .  S
C179       C1124   1.413       .  A
C179        O184   1.373       .  S
C180        C181   1.411       .  A
C180       C1123   1.413   1_455  A
C181        C182   1.404       .  A
C181        H185   1.083       .  S
C182       C1121   1.404   1_455  A
C182        O186   1.371       .  S
O184        H188   0.992       .  S
O186        H187   0.991       .  S
C189        C190   1.402       .  A
C189        C194   1.404       .  A
C190        C191   1.395       .  A
C190        H195   1.084       .  S
C191        C192   1.413       .  A
C191        O196   1.372       .  S
C192        C193   1.410       .  A
C193        C194   1.403       .  A
C193        H197   1.083       .  S
C194        O198   1.371       .  S
O196        H200   0.992       .  S
O198        H199   0.991       .  S
C201        C202   1.410       .  A
C201        C206   1.414       .  A
C202        C203   1.407       .  A
C202        H207   1.083       .  S
C203        C204   1.406       .  A
C203        O208   1.371       .  S
C204        C205   1.400       .  A
C205        C206   1.398       .  A
C205        H209   1.084       .  S
C206        O210   1.373       .  S
O208        H212   0.991       .  S
O210        H211   0.992       .  S
C213        C259   1.473       .  S
C213       C1394   1.403   1_455  A
C213        C690   1.407       .  A
C214        C215   1.398       .  A
C214       C1393   1.403       .  A
C214       H1163   1.084       .  S
C215        C924   1.410   1_545  A
C215        O220   1.372       .  S
C216        C923   1.410       .  A
C216       C1161   1.406       .  A
C217        C218   1.402       .  A
C217       C1160   1.406   1_455  A
C217       H1165   1.084       .  S
C218        C685   1.407       .  A
C218        O222   1.371       .  S
H219       C1158   1.084       .  S
O220        H224   0.991       .  S
H221       C1161   1.084       .  S
O222        H223   0.993       .  S
C225        C226   1.402       .  A
C225        C466   1.409       .  A
C226        C227   1.404       .  A
C226        H231   1.084       .  S
C227        C228   1.412       .  A
C227        O232   1.372       .  S
C228        C465   1.405       .  A
C229        C230   1.402       .  A
C229        C464   1.405       .  A
C229        H233   1.084       .  S
C230        C461   1.409       .  A
C230        O234   1.372       .  S
O232        H236   0.990       .  S
O234        H235   0.993       .  S
Zn237       O241   1.944       .  S
Zn237       O246   1.998       .  S
Zn237       O253   1.996       .  S
Zn238       O243   2.027       .  S
Zn238       O245   2.024       .  S
Zn238       O249   1.987       .  S
Zn239       O241   1.953       .  S
Zn239       O244   2.025       .  S
Zn239       O247   2.030       .  S
Zn239       O250   2.003       .  S
Zn240       O251   2.039       .  S
Zn240       O252   2.037       .  S
O242        C254   1.273       .  A
O243        C255   1.275   1_556  A
O244        C256   1.273       .  A
O245        C254   1.274       .  A
O246        C256   1.272       .  A
O248        C257   1.277       .  A
O249        C258   1.271       .  A
O250        C257   1.273       .  A
O251        C258   1.275       .  A
O253        C259   1.271       .  A
C254        C404   1.488       .  S
C255        C464   1.484       .  S
C256        C416   1.487       .  S
C257        C440   1.475       .  S
C258        C425   1.473       .  S
Zn260       O264   1.950   1_556  S
Zn260       O265   2.020       .  S
Zn260       O269   2.011       .  S
Zn260       O276   1.989       .  S
Zn261       O266   2.014       .  S
Zn261       O268   2.009       .  S
Zn261       O272   1.978       .  S
Zn262       O264   1.943       .  S
Zn262       O267   2.000   1_554  S
Zn262       O273   2.009       .  S
Zn263       O264   1.989       .  S
Zn263       O271   2.049       .  S
Zn263       O275   2.054   1_554  S
O265        C277   1.274   1_556  A
O266        C278   1.271       .  A
O267        C279   1.274       .  A
O269        C279   1.272       .  A
O270        C278   1.271       .  A
O271        C280   1.277       .  A
O272        C281   1.271       .  A
O273        C280   1.272       .  A
O274        C281   1.277       .  A
O275        C282   1.276       .  A
O276        C282   1.271       .  A
C277        C452   1.478       .  S
C278        C389   1.486       .  S
C279        C380   1.484       .  S
C280        C461   1.478       .  S
C281        C365   1.472       .  S
C282        C353   1.475       .  S
Zn283       O287   1.952       .  S
Zn283       O288   2.024       .  S
Zn283       O292   2.016       .  S
Zn283       O299   2.008       .  S
Zn284       O287   1.955       .  S
Zn284       O289   2.044       .  S
Zn284       O291   2.029       .  S
Zn284       O295   1.987       .  S
Zn285       O287   1.941       .  S
Zn285       O290   2.006       .  S
Zn285       O293   1.998       .  S
Zn285       O296   2.002       .  S
Zn286       O287   1.986       .  S
Zn286       O294   2.037       .  S
Zn286       O297   2.044       .  S
Zn286       O298   2.038       .  S
O288        C300   1.275       .  A
O289        C301   1.275       .  A
O290        C302   1.273       .  A
O291        C300   1.275       .  A
O292        C302   1.273       .  A
O293        C301   1.272       .  A
O294        C303   1.275       .  A
O295        C304   1.271       .  A
O296        C303   1.271       .  A
O297        C304   1.275       .  A
O298        C305   1.275       .  A
O299        C305   1.273       .  A
C300        C329   1.476       .  S
C301        C437   1.490       .  S
C302        C428   1.487       .  S
C303        C341   1.476       .  S
C304        C413   1.470       .  S
C305        C401   1.474       .  S
Zn306       O310   1.949       .  S
Zn306       O311   2.031       .  S
Zn306       O315   1.978       .  S
Zn306       O322   2.028       .  S
Zn307       O310   1.942       .  S
Zn307       O312   2.004       .  S
Zn307       O314   2.014       .  S
Zn307       O318   2.008       .  S
Zn308       O310   1.993       .  S
Zn308       O313   2.036       .  S
Zn308       O316   2.036       .  S
Zn308       O319   2.036       .  S
Zn309       O310   1.949       .  S
Zn309       O317   1.991       .  S
Zn309       O320   2.012       .  S
Zn309       O321   2.026       .  S
O311        C323   1.273       .  A
O312        C324   1.272       .  A
O313        C325   1.275       .  A
O314        C323   1.274       .  A
O315        C325   1.271       .  A
O316        C324   1.275       .  A
O317        C326   1.272       .  A
O318        C327   1.274       .  A
O319        C326   1.274       .  A
O320        C327   1.271       .  A
O321        C328   1.275       .  A
O322        C328   1.275       .  A
C323        C356   1.492       .  S
C324        C332   1.483       .  S
C325        C377   1.468       .  S
C326        C392   1.470       .  S
C327        C368   1.487       .  S
C328        C344   1.483       .  S
C329       C1274   1.405       .  A
C329        C806   1.406   1_545  A
C330       C1273   1.405   1_455  A
C330        C331   1.404   1_545  A
C330        H335   1.084       .  S
C331        C804   1.411       .  A
C331        O336   1.371       .  S
C332        C803   1.411       .  A
C332       C1277   1.406   1_455  A
C333       C1276   1.406       .  A
C333        C334   1.398       .  A
C333        H337   1.084       .  S
C334        C801   1.406       .  A
C334        O338   1.372       .  S
O336        H340   0.994   1_565  S
O338        H339   0.991       .  S
C341        C342   1.403       .  A
C341        C346   1.407       .  A
C342        C343   1.401       .  A
C342        H347   1.084       .  S
C343        C344   1.411       .  A
C343        O348   1.372       .  S
C344        C345   1.406       .  A
C345        C346   1.402       .  A
C345        H349   1.084       .  S
C346        O350   1.372       .  S
O348        H352   0.991       .  S
O350        H351   0.992       .  S
C353       C1298   1.401       .  A
C353        C358   1.407       .  A
C354       C1297   1.401   1_455  A
C354        C355   1.407       .  A
C354        H359   1.084       .  S
C355        C356   1.417       .  A
C355        O360   1.371       .  S
C356       C1301   1.406   1_455  A
C357       C1300   1.406       .  A
C357        C358   1.398       .  A
C357        H361   1.083       .  S
C358        O362   1.373       .  S
O360        H364   0.992       .  S
O362        H363   0.991       .  S
C365       C1310   1.401       .  A
C365        C370   1.407       .  A
C366       C1309   1.401   1_455  A
C366        C367   1.406       .  A
C366        H371   1.084       .  S
C367        C368   1.418       .  A
C367        O372   1.372       .  S
C368       C1313   1.405   1_455  A
C369       C1312   1.405       .  A
C369        C370   1.393       .  A
C369        H373   1.083       .  S
C370        O374   1.372       .  S
O372        H376   0.993       .  S
O374        H375   0.990       .  S
C377        C378   1.400       .  A
C377        C382   1.406       .  A
C378        C379   1.404       .  A
C378        H383   1.084       .  S
C379        C380   1.416       .  A
C379        O384   1.371       .  S
C380        C381   1.404       .  A
C381        C382   1.392       .  A
C381        H385   1.084       .  S
C382        O386   1.372       .  S
O384        H388   0.991       .  S
O386        H387   0.993       .  S
C389        C390   1.411       .  A
C389        C394   1.412       .  A
C390        C391   1.404       .  A
C390        H395   1.083       .  S
C391        C392   1.404       .  A
C391        O396   1.371       .  S
C392        C393   1.400       .  A
C393        C394   1.395       .  A
C393        H397   1.084       .  S
C394        O398   1.373       .  S
O396        H400   0.991       .  S
O398        H399   0.992       .  S
C401        C402   1.402       .  A
C401       C1350   1.405       .  A
C402        C403   1.401       .  A
C402        H407   1.084       .  S
C403       C1348   1.412       .  A
C403        O408   1.373       .  S
C404       C1347   1.412   1_455  A
C404        C405   1.410       .  A
C405        C406   1.402       .  A
C405        H409   1.083       .  S
C406       C1345   1.405   1_455  A
C406        O410   1.371       .  S
O408        H412   0.991       .  S
O410        H411   0.990       .  S
C413        C414   1.400       .  A
C413       C1362   1.404       .  A
C414        C415   1.396       .  A
C414        H419   1.084       .  S
C415       C1360   1.413       .  A
C415        O420   1.373       .  S
C416       C1359   1.413   1_455  A
C416        C417   1.411       .  A
C417        C418   1.404       .  A
C417        H421   1.083       .  S
C418       C1357   1.404   1_455  A
C418        O422   1.371       .  S
O420        H424   0.992       .  S
O422        H423   0.991       .  S
C425        C426   1.402       .  A
C425        C430   1.404       .  A
C426        C427   1.395       .  A
C426        H431   1.084       .  S
C427        C428   1.413       .  A
C427        O432   1.372       .  S
C428        C429   1.410       .  A
C429        C430   1.403       .  A
C429        H433   1.083       .  S
C430        O434   1.371       .  S
O432        H436   0.992       .  S
O434        H435   0.991       .  S
C437        C438   1.410       .  A
C437        C442   1.414       .  A
C438        C439   1.407       .  A
C438        H443   1.083       .  S
C439        C440   1.406       .  A
C439        O444   1.371       .  S
C440        C441   1.400       .  A
C441        C442   1.398       .  A
C441        H445   1.084       .  S
C442        O446   1.373       .  S
O444        H448   0.991       .  S
O446        H447   0.992       .  S
C449       C1158   1.403   1_455  A
C449        C926   1.407   1_554  A
C450       C1157   1.403       .  A
C450        C451   1.398       .  A
C450       H1399   1.084       .  S
C451        C688   1.410   1_545  A
C451        O456   1.372       .  S
C452        C687   1.410       .  A
C452       C1397   1.406   1_554  A
C453       C1396   1.406   1_456  A
C453        C454   1.402       .  A
C453       H1401   1.084       .  S
C454        C921   1.407   1_556  A
C454        O458   1.371       .  S
H455       C1394   1.084       .  S
O456        H460   0.991       .  S
H457       C1397   1.084       .  S
O458        H459   0.993       .  S
C461        C462   1.402   1_554  A
C462        C463   1.404       .  A
C462        H467   1.084       .  S
C463        C464   1.412   1_556  A
C463        O468   1.372       .  S
C465        C466   1.402       .  A
C465        H469   1.084       .  S
C466        O470   1.372       .  S
O468        H472   0.990       .  S
O470        H471   0.993       .  S
Zn473       O477   1.944   1_554  S
Zn473       O714   2.011   1_554  S
Zn473       O482   1.997       .  S
Zn473       O489   1.996       .  S
Zn474       O713   1.950       .  S
Zn474       O479   2.027       .  S
Zn474       O481   2.024       .  S
Zn474       O485   1.987       .  S
Zn475       O477   1.953   1_554  S
Zn475       O480   2.025       .  S
Zn475       O483   2.030       .  S
Zn475       O486   2.003       .  S
Zn476       O713   1.993       .  S
Zn476       O720   2.053       .  S
Zn476       O487   2.039       .  S
Zn476       O488   2.037       .  S
O477       Zn710   1.950       .  S
O477       Zn712   1.993       .  S
O478       Zn709   2.011       .  S
O478        C490   1.273       .  A
O479        C491   1.275       .  A
O480        C492   1.273       .  A
O481        C490   1.274       .  A
O482        C492   1.272       .  A
O483        C727   1.276       .  A
O484       Zn712   2.053   1_554  S
O484        C493   1.277       .  A
O485        C494   1.271       .  A
O486        C493   1.273       .  A
O487        C494   1.275       .  A
O488        C731   1.275       .  A
O489        C495   1.271   1_554  A
C490        C640   1.488       .  S
C491        O719   1.276       .  A
C491        C700   1.484       .  S
C492        C652   1.487       .  S
C493        C676   1.475       .  S
C494        C661   1.473       .  S
C495        O724   1.275       .  A
C495        C921   1.473   1_556  S
Zn496       O500   1.950       .  S
Zn496       O501   2.020       .  S
Zn496       O505   2.011       .  S
Zn496       O512   1.989       .  S
Zn497       O736   1.948       .  S
Zn497       O502   2.014       .  S
Zn497       O504   2.009       .  S
Zn497       O508   1.978       .  S
Zn498       O500   1.943       .  S
Zn498       O503   2.000       .  S
Zn498       O742   2.003       .  S
Zn498       O509   2.009       .  S
Zn499       O500   1.989       .  S
Zn499       O507   2.049       .  S
Zn499       O746   2.050       .  S
Zn499       O511   2.054       .  S
O500       Zn733   1.948       .  S
O501        C513   1.274       .  A
O502        C514   1.271       .  A
O503        C515   1.274       .  A
O504        C749   1.272       .  A
O505        C515   1.272       .  A
O506       Zn734   2.003       .  S
O506        C514   1.271       .  A
O507        C516   1.277       .  A
O508        C517   1.271       .  A
O509        C516   1.272       .  A
O510       Zn735   2.050       .  S
O510        C517   1.277       .  A
O511        C518   1.276       .  A
O512        C518   1.271       .  A
C513        O740   1.272       .  A
C513        C688   1.478       .  S
C514        C625   1.486       .  S
C515        C616   1.484       .  S
C516        C697   1.478       .  S
C517        C601   1.472       .  S
C518        C589   1.475       .  S
Zn519       O523   1.952       .  S
Zn519       O524   2.024       .  S
Zn519       O528   2.016       .  S
Zn519       O535   2.008       .  S
Zn520       O523   1.955       .  S
Zn520       O525   2.044       .  S
Zn520       O527   2.029       .  S
Zn520       O531   1.987       .  S
Zn521       O523   1.941       .  S
Zn521       O526   2.006       .  S
Zn521       O529   1.998       .  S
Zn521       O532   2.002       .  S
Zn522       O523   1.986       .  S
Zn522       O530   2.037       .  S
Zn522       O533   2.044       .  S
Zn522       O534   2.038       .  S
O524        C536   1.275       .  A
O525        C537   1.275       .  A
O526        C538   1.273       .  A
O527        C536   1.275       .  A
O528        C538   1.273       .  A
O529        C537   1.272       .  A
O530        C539   1.275       .  A
O531        C540   1.271       .  A
O532        C539   1.271       .  A
O533        C540   1.275       .  A
O534        C541   1.275       .  A
O535        C541   1.273       .  A
C536        C565   1.476       .  S
C537        C673   1.490       .  S
C538        C664   1.487       .  S
C539        C577   1.476       .  S
C540        C649   1.470       .  S
C541        C637   1.474       .  S
Zn542       O546   1.949       .  S
Zn542       O547   2.031       .  S
Zn542       O551   1.978       .  S
Zn542       O558   2.028       .  S
Zn543       O546   1.942       .  S
Zn543       O548   2.004       .  S
Zn543       O550   2.014       .  S
Zn543       O554   2.008       .  S
Zn544       O546   1.993       .  S
Zn544       O549   2.036       .  S
Zn544       O552   2.036       .  S
Zn544       O555   2.036       .  S
Zn545       O546   1.949       .  S
Zn545       O553   1.991       .  S
Zn545       O556   2.012       .  S
Zn545       O557   2.026       .  S
O547        C559   1.273       .  A
O548        C560   1.272       .  A
O549        C561   1.275       .  A
O550        C559   1.274       .  A
O551        C561   1.271       .  A
O552        C560   1.275       .  A
O553        C562   1.272       .  A
O554        C563   1.274       .  A
O555        C562   1.274       .  A
O556        C563   1.271       .  A
O557        C564   1.275       .  A
O558        C564   1.275       .  A
C559        C592   1.492       .  S
C560        C568   1.483       .  S
C561        C613   1.468       .  S
C562        C628   1.470       .  S
C563        C604   1.487       .  S
C564        C580   1.483       .  S
C565       C1510   1.405       .  A
C566       C1509   1.405   1_455  A
C566        C567   1.404       .  A
C566        H571   1.084       .  S
C567        O572   1.371       .  S
C568       C1513   1.406   1_455  A
C569       C1512   1.406       .  A
C569        C570   1.398       .  A
C569        H573   1.084       .  S
C570        O574   1.372       .  S
O572        H576   0.994       .  S
O574        H575   0.991       .  S
C577        C578   1.403       .  A
C577        C582   1.407       .  A
C578        C579   1.401       .  A
C578        H583   1.084       .  S
C579        C580   1.411       .  A
C579        O584   1.372       .  S
C580        C581   1.406       .  A
C581        C582   1.402       .  A
C581        H585   1.084       .  S
C582        O586   1.372       .  S
O584        H588   0.991       .  S
O586        H587   0.992       .  S
C589       C1534   1.401       .  A
C589        C594   1.407       .  A
C590       C1533   1.401   1_455  A
C590        C591   1.407       .  A
C590        H595   1.084       .  S
C591        C592   1.417       .  A
C591        O596   1.371       .  S
C592       C1537   1.406   1_455  A
C593       C1536   1.406       .  A
C593        C594   1.398       .  A
C593        H597   1.083       .  S
C594        O598   1.373       .  S
O596        H600   0.992       .  S
O598        H599   0.991       .  S
C601       C1546   1.401       .  A
C601        C606   1.407       .  A
C602       C1545   1.401   1_455  A
C602        C603   1.406       .  A
C602        H607   1.084       .  S
C603        C604   1.418       .  A
C603        O608   1.372       .  S
C604       C1549   1.405   1_455  A
C605       C1548   1.405       .  A
C605        C606   1.393       .  A
C605        H609   1.083       .  S
C606        O610   1.372       .  S
O608        H612   0.993       .  S
O610        H611   0.990       .  S
C613        C614   1.400       .  A
C613        C618   1.406       .  A
C614        C615   1.404       .  A
C614        H619   1.084       .  S
C615        C616   1.416       .  A
C615        O620   1.371       .  S
C616        C617   1.404       .  A
C617        C618   1.392       .  A
C617        H621   1.084       .  S
C618        O622   1.372       .  S
O620        H624   0.991       .  S
O622        H623   0.993       .  S
C625        C626   1.411       .  A
C625        C630   1.412       .  A
C626        C627   1.404       .  A
C626        H631   1.083       .  S
C627        C628   1.404       .  A
C627        O632   1.371       .  S
C628        C629   1.400       .  A
C629        C630   1.395       .  A
C629        H633   1.084       .  S
C630        O634   1.373       .  S
O632        H636   0.991       .  S
O634        H635   0.992       .  S
C637        C638   1.402       .  A
C637       C1586   1.405       .  A
C638        C639   1.401       .  A
C638        H643   1.084       .  S
C639       C1584   1.412       .  A
C639        O644   1.373       .  S
C640       C1583   1.412   1_455  A
C640        C641   1.410       .  A
C641        C642   1.402       .  A
C641        H645   1.083       .  S
C642       C1581   1.405   1_455  A
C642        O646   1.371       .  S
O644        H648   0.991       .  S
O646        H647   0.990       .  S
C649        C650   1.400       .  A
C649       C1598   1.404       .  A
C650        C651   1.396       .  A
C650        H655   1.084       .  S
C651       C1596   1.413       .  A
C651        O656   1.373       .  S
C652       C1595   1.413   1_455  A
C652        C653   1.411       .  A
C653        C654   1.404       .  A
C653        H657   1.083       .  S
C654       C1593   1.404   1_455  A
C654        O658   1.371       .  S
O656        H660   0.992       .  S
O658        H659   0.991       .  S
C661        C662   1.402       .  A
C661        C666   1.404       .  A
C662        C663   1.395       .  A
C662        H667   1.084       .  S
C663        C664   1.413       .  A
C663        O668   1.372       .  S
C664        C665   1.410       .  A
C665        C666   1.403       .  A
C665        H669   1.083       .  S
C666        O670   1.371       .  S
O668        H672   0.992       .  S
O670        H671   0.991       .  S
C673        C674   1.410       .  A
C673        C678   1.414       .  A
C674        C675   1.407       .  A
C674        H679   1.083       .  S
C675        C676   1.406       .  A
C675        O680   1.371       .  S
C676        C677   1.400       .  A
C677        C678   1.398       .  A
C677        H681   1.084       .  S
C678        O682   1.373       .  S
O680        H684   0.991       .  S
O682        H683   0.992       .  S
C685        C731   1.473       .  S
C685       C1866   1.403   1_455  A
C686       C1865   1.403       .  A
C686        C687   1.398       .  A
C686       H1635   1.084       .  S
C687        O692   1.372       .  S
C688       C1633   1.406       .  A
C689       C1632   1.406   1_455  A
C689        C690   1.402   1_565  A
C689       H1637   1.084       .  S
C690        O694   1.371       .  S
H691       C1630   1.084       .  S
O692        H696   0.991       .  S
H693       C1633   1.084       .  S
O694        H695   0.993   1_545  S
C697        C698   1.402       .  A
C697        C938   1.409       .  A
C698        C699   1.404       .  A
C698        H703   1.084       .  S
C699        C700   1.412       .  A
C699        O704   1.372       .  S
C700        C937   1.405       .  A
C701        C936   1.405       .  A
C701        C702   1.402       .  A
C701        H705   1.084       .  S
C702        C933   1.409       .  A
C702        O706   1.372       .  S
O704        H708   0.990       .  S
O706        H707   0.993       .  S
Zn709       O713   1.944       .  S
Zn709       O718   1.998       .  S
Zn709       O725   1.996       .  S
Zn710       O715   2.027       .  S
Zn710       O717   2.024       .  S
Zn710       O721   1.987       .  S
Zn711       O713   1.953       .  S
Zn711       O716   2.025       .  S
Zn711       O719   2.030       .  S
Zn711       O722   2.003       .  S
Zn712       O723   2.039       .  S
Zn712       O724   2.037       .  S
O714        C726   1.273       .  A
O715        C727   1.275   1_556  A
O716        C728   1.273       .  A
O717        C726   1.274       .  A
O718        C728   1.272       .  A
O720        C729   1.277       .  A
O721        C730   1.271       .  A
O722        C729   1.273       .  A
O723        C730   1.275       .  A
O725        C731   1.271       .  A
C726        C876   1.488       .  S
C727        C936   1.484       .  S
C728        C888   1.487       .  S
C729        C912   1.475       .  S
C730        C897   1.473       .  S
Zn732       O736   1.950   1_556  S
Zn732       O737   2.020       .  S
Zn732       O741   2.011       .  S
Zn732       O748   1.989       .  S
Zn733       O738   2.014       .  S
Zn733       O740   2.009       .  S
Zn733       O744   1.978       .  S
Zn734       O736   1.943       .  S
Zn734       O739   2.000   1_554  S
Zn734       O745   2.009       .  S
Zn735       O736   1.989       .  S
Zn735       O743   2.049       .  S
Zn735       O747   2.054   1_554  S
O737        C749   1.274   1_556  A
O738        C750   1.271       .  A
O739        C751   1.274       .  A
O741        C751   1.272       .  A
O742        C750   1.271       .  A
O743        C752   1.277       .  A
O744        C753   1.271       .  A
O745        C752   1.272       .  A
O746        C753   1.277       .  A
O747        C754   1.276       .  A
O748        C754   1.271       .  A
C749        C924   1.478       .  S
C750        C861   1.486       .  S
C751        C852   1.484       .  S
C752        C933   1.478       .  S
C753        C837   1.472       .  S
C754        C825   1.475       .  S
Zn755       O759   1.952       .  S
Zn755       O760   2.024       .  S
Zn755       O764   2.016       .  S
Zn755       O771   2.008       .  S
Zn756       O759   1.955       .  S
Zn756       O761   2.044       .  S
Zn756       O763   2.029       .  S
Zn756       O767   1.987       .  S
Zn757       O759   1.941       .  S
Zn757       O762   2.006       .  S
Zn757       O765   1.998       .  S
Zn757       O768   2.002       .  S
Zn758       O759   1.986       .  S
Zn758       O766   2.037       .  S
Zn758       O769   2.044       .  S
Zn758       O770   2.038       .  S
O760        C772   1.275       .  A
O761        C773   1.275       .  A
O762        C774   1.273       .  A
O763        C772   1.275       .  A
O764        C774   1.273       .  A
O765        C773   1.272       .  A
O766        C775   1.275       .  A
O767        C776   1.271       .  A
O768        C775   1.271       .  A
O769        C776   1.275       .  A
O770        C777   1.275       .  A
O771        C777   1.273       .  A
C772        C801   1.476       .  S
C773        C909   1.490       .  S
C774        C900   1.487       .  S
C775        C813   1.476       .  S
C776        C885   1.470       .  S
C777        C873   1.474       .  S
Zn778       O782   1.949       .  S
Zn778       O783   2.031       .  S
Zn778       O787   1.978       .  S
Zn778       O794   2.028       .  S
Zn779       O782   1.942       .  S
Zn779       O784   2.004       .  S
Zn779       O786   2.014       .  S
Zn779       O790   2.008       .  S
Zn780       O782   1.993       .  S
Zn780       O785   2.036       .  S
Zn780       O788   2.036       .  S
Zn780       O791   2.036       .  S
Zn781       O782   1.949       .  S
Zn781       O789   1.991       .  S
Zn781       O792   2.012       .  S
Zn781       O793   2.026       .  S
O783        C795   1.273       .  A
O784        C796   1.272       .  A
O785        C797   1.275       .  A
O786        C795   1.274       .  A
O787        C797   1.271       .  A
O788        C796   1.275       .  A
O789        C798   1.272       .  A
O790        C799   1.274       .  A
O791        C798   1.274       .  A
O792        C799   1.271       .  A
O793        C800   1.275       .  A
O794        C800   1.275       .  A
C795        C828   1.492       .  S
C796        C804   1.483       .  S
C797        C849   1.468       .  S
C798        C864   1.470       .  S
C799        C840   1.487       .  S
C800        C816   1.483       .  S
C801       C1746   1.405       .  A
C802       C1745   1.405   1_455  A
C802        C803   1.404       .  A
C802        H807   1.084       .  S
C803        O808   1.371       .  S
C804       C1749   1.406   1_455  A
C805       C1748   1.406       .  A
C805        C806   1.398       .  A
C805        H809   1.084       .  S
C806        O810   1.372       .  S
O808        H812   0.994       .  S
O810        H811   0.991       .  S
C813        C814   1.403       .  A
C813        C818   1.407       .  A
C814        C815   1.401       .  A
C814        H819   1.084       .  S
C815        C816   1.411       .  A
C815        O820   1.372       .  S
C816        C817   1.406       .  A
C817        C818   1.402       .  A
C817        H821   1.084       .  S
C818        O822   1.372       .  S
O820        H824   0.991       .  S
O822        H823   0.992       .  S
C825       C1770   1.401       .  A
C825        C830   1.407       .  A
C826       C1769   1.401   1_455  A
C826        C827   1.407       .  A
C826        H831   1.084       .  S
C827        C828   1.417       .  A
C827        O832   1.371       .  S
C828       C1773   1.406   1_455  A
C829       C1772   1.406       .  A
C829        C830   1.398       .  A
C829        H833   1.083       .  S
C830        O834   1.373       .  S
O832        H836   0.992       .  S
O834        H835   0.991       .  S
C837       C1782   1.401       .  A
C837        C842   1.407       .  A
C838       C1781   1.401   1_455  A
C838        C839   1.406       .  A
C838        H843   1.084       .  S
C839        C840   1.418       .  A
C839        O844   1.372       .  S
C840       C1785   1.405   1_455  A
C841       C1784   1.405       .  A
C841        C842   1.393       .  A
C841        H845   1.083       .  S
C842        O846   1.372       .  S
O844        H848   0.993       .  S
O846        H847   0.990       .  S
C849        C850   1.400       .  A
C849        C854   1.406       .  A
C850        C851   1.404       .  A
C850        H855   1.084       .  S
C851        C852   1.416       .  A
C851        O856   1.371       .  S
C852        C853   1.404       .  A
C853        C854   1.392       .  A
C853        H857   1.084       .  S
C854        O858   1.372       .  S
O856        H860   0.991       .  S
O858        H859   0.993       .  S
C861        C862   1.411       .  A
C861        C866   1.412       .  A
C862        C863   1.404       .  A
C862        H867   1.083       .  S
C863        C864   1.404       .  A
C863        O868   1.371       .  S
C864        C865   1.400       .  A
C865        C866   1.395       .  A
C865        H869   1.084       .  S
C866        O870   1.373       .  S
O868        H872   0.991       .  S
O870        H871   0.992       .  S
C873        C874   1.402       .  A
C873       C1822   1.405       .  A
C874        C875   1.401       .  A
C874        H879   1.084       .  S
C875       C1820   1.412       .  A
C875        O880   1.373       .  S
C876       C1819   1.412   1_455  A
C876        C877   1.410       .  A
C877        C878   1.402       .  A
C877        H881   1.083       .  S
C878       C1817   1.405   1_455  A
C878        O882   1.371       .  S
O880        H884   0.991       .  S
O882        H883   0.990       .  S
C885        C886   1.400       .  A
C885       C1834   1.404       .  A
C886        C887   1.396       .  A
C886        H891   1.084       .  S
C887       C1832   1.413       .  A
C887        O892   1.373       .  S
C888       C1831   1.413   1_455  A
C888        C889   1.411       .  A
C889        C890   1.404       .  A
C889        H893   1.083       .  S
C890       C1829   1.404   1_455  A
C890        O894   1.371       .  S
O892        H896   0.992       .  S
O894        H895   0.991       .  S
C897        C898   1.402       .  A
C897        C902   1.404       .  A
C898        C899   1.395       .  A
C898        H903   1.084       .  S
C899        C900   1.413       .  A
C899        O904   1.372       .  S
C900        C901   1.410       .  A
C901        C902   1.403       .  A
C901        H905   1.083       .  S
C902        O906   1.371       .  S
O904        H908   0.992       .  S
O906        H907   0.991       .  S
C909        C910   1.410       .  A
C909        C914   1.414       .  A
C910        C911   1.407       .  A
C910        H915   1.083       .  S
C911        C912   1.406       .  A
C911        O916   1.371       .  S
C912        C913   1.400       .  A
C913        C914   1.398       .  A
C913        H917   1.084       .  S
C914        O918   1.373       .  S
O916        H920   0.991       .  S
O918        H919   0.992       .  S
C921       C1630   1.403   1_455  A
C922       C1629   1.403       .  A
C922        C923   1.398       .  A
C922       H1871   1.084       .  S
C923        O928   1.372       .  S
C924       C1869   1.406   1_554  A
C925       C1868   1.406   1_456  A
C925        C926   1.402   1_565  A
C925       H1873   1.084       .  S
C926        O930   1.371       .  S
H927       C1866   1.084       .  S
O928        H932   0.991       .  S
H929       C1869   1.084       .  S
O930        H931   0.993   1_545  S
C933        C934   1.402   1_554  A
C934        C935   1.404       .  A
C934        H939   1.084       .  S
C935        C936   1.412   1_556  A
C935        O940   1.372       .  S
C937        C938   1.402       .  A
C937        H941   1.084       .  S
C938        O942   1.372       .  S
O940        H944   0.990       .  S
O942        H943   0.993       .  S
Zn945       O949   1.944   1_554  S
Zn945      O1186   2.011   1_554  S
Zn945       O954   1.998       .  S
Zn945       O961   1.996       .  S
Zn946      O1185   1.950       .  S
Zn946       O951   2.027       .  S
Zn946       O953   2.024       .  S
Zn946       O957   1.987       .  S
Zn947       O949   1.953   1_554  S
Zn947       O952   2.025       .  S
Zn947       O955   2.030       .  S
Zn947       O958   2.003       .  S
Zn948      O1185   1.993       .  S
Zn948      O1192   2.053       .  S
Zn948       O959   2.039       .  S
Zn948       O960   2.037       .  S
O949      Zn1182   1.950       .  S
O949      Zn1184   1.993       .  S
O950      Zn1181   2.011       .  S
O950        C962   1.273       .  A
O951        C963   1.275       .  A
O952        C964   1.273       .  A
O953        C962   1.274       .  A
O954        C964   1.272       .  A
O955       C1199   1.276       .  A
O956      Zn1184   2.053   1_554  S
O956        C965   1.277       .  A
O957        C966   1.271       .  A
O958        C965   1.273       .  A
O959        C966   1.275       .  A
O960       C1203   1.275       .  A
O961        C967   1.271   1_554  A
C962       C1112   1.488       .  S
C963       O1191   1.276       .  A
C963       C1172   1.484       .  S
C964       C1124   1.487       .  S
C965       C1148   1.475       .  S
C966       C1133   1.473       .  S
C967       O1196   1.275       .  A
C967       C1393   1.473   1_556  S
Zn968       O972   1.950       .  S
Zn968       O973   2.020       .  S
Zn968       O977   2.011       .  S
Zn968       O984   1.989       .  S
Zn969      O1208   1.948       .  S
Zn969       O974   2.014       .  S
Zn969       O976   2.009       .  S
Zn969       O980   1.978       .  S
Zn970       O972   1.943       .  S
Zn970       O975   2.000       .  S
Zn970      O1214   2.003       .  S
Zn970       O981   2.009       .  S
Zn971       O972   1.989       .  S
Zn971       O979   2.049       .  S
Zn971      O1218   2.050       .  S
Zn971       O983   2.054       .  S
O972      Zn1205   1.948       .  S
O973        C985   1.274       .  A
O974        C986   1.271       .  A
O975        C987   1.274       .  A
O976       C1221   1.272       .  A
O977        C987   1.272       .  A
O978      Zn1206   2.003       .  S
O978        C986   1.271       .  A
O979        C988   1.277       .  A
O980        C989   1.271       .  A
O981        C988   1.272       .  A
O982      Zn1207   2.050       .  S
O982        C989   1.277       .  A
O983        C990   1.276       .  A
O984        C990   1.271       .  A
C985       O1212   1.272       .  A
C985       C1160   1.478       .  S
C986       C1097   1.486       .  S
C987       C1088   1.484       .  S
C988       C1169   1.478       .  S
C989       C1073   1.472       .  S
C990       C1061   1.475       .  S
Zn991       O995   1.952       .  S
Zn991       O996   2.024       .  S
Zn991      O1000   2.016       .  S
Zn991      O1007   2.008       .  S
Zn992       O995   1.955       .  S
Zn992       O997   2.044       .  S
Zn992       O999   2.029       .  S
Zn992      O1003   1.987       .  S
Zn993       O995   1.941       .  S
Zn993       O998   2.006       .  S
Zn993      O1001   1.998       .  S
Zn993      O1004   2.002       .  S
Zn994       O995   1.986       .  S
Zn994      O1002   2.037       .  S
Zn994      O1005   2.044       .  S
Zn994      O1006   2.038       .  S
O996       C1008   1.275       .  A
O997       C1009   1.275       .  A
O998       C1010   1.273       .  A
O999       C1008   1.275       .  A
O1000      C1010   1.273       .  A
O1001      C1009   1.272       .  A
O1002      C1011   1.275       .  A
O1003      C1012   1.271       .  A
O1004      C1011   1.271       .  A
O1005      C1012   1.275       .  A
O1006      C1013   1.275       .  A
O1007      C1013   1.273       .  A
C1008      C1037   1.476       .  S
C1009      C1145   1.490       .  S
C1010      C1136   1.487       .  S
C1011      C1049   1.476       .  S
C1012      C1121   1.470       .  S
C1013      C1109   1.474       .  S
Zn1014     O1018   1.949       .  S
Zn1014     O1019   2.031       .  S
Zn1014     O1023   1.978       .  S
Zn1014     O1030   2.028       .  S
Zn1015     O1018   1.942       .  S
Zn1015     O1020   2.004       .  S
Zn1015     O1022   2.014       .  S
Zn1015     O1026   2.008       .  S
Zn1016     O1018   1.993       .  S
Zn1016     O1021   2.036       .  S
Zn1016     O1024   2.036       .  S
Zn1016     O1027   2.036       .  S
Zn1017     O1018   1.949       .  S
Zn1017     O1025   1.991       .  S
Zn1017     O1028   2.012       .  S
Zn1017     O1029   2.026       .  S
O1019      C1031   1.273       .  A
O1020      C1032   1.272       .  A
O1021      C1033   1.275       .  A
O1022      C1031   1.274       .  A
O1023      C1033   1.271       .  A
O1024      C1032   1.275       .  A
O1025      C1034   1.272       .  A
O1026      C1035   1.274       .  A
O1027      C1034   1.274       .  A
O1028      C1035   1.271       .  A
O1029      C1036   1.275       .  A
O1030      C1036   1.275       .  A
C1031      C1064   1.492       .  S
C1032      C1040   1.483       .  S
C1033      C1085   1.468       .  S
C1034      C1100   1.470       .  S
C1035      C1076   1.487       .  S
C1036      C1052   1.483       .  S
C1037      C1514   1.406   1_545  A
C1038      C1039   1.404   1_545  A
C1038      H1043   1.084       .  S
C1039      C1512   1.411       .  A
C1039      O1044   1.371       .  S
C1040      C1511   1.411       .  A
C1041      C1042   1.398       .  A
C1041      H1045   1.084       .  S
C1042      C1509   1.406       .  A
C1042      O1046   1.372       .  S
O1044      H1048   0.994   1_565  S
O1046      H1047   0.991       .  S
C1049      C1050   1.403       .  A
C1049      C1054   1.407       .  A
C1050      C1051   1.401       .  A
C1050      H1055   1.084       .  S
C1051      C1052   1.411       .  A
C1051      O1056   1.372       .  S
C1052      C1053   1.406       .  A
C1053      C1054   1.402       .  A
C1053      H1057   1.084       .  S
C1054      O1058   1.372       .  S
O1056      H1060   0.991       .  S
O1058      H1059   0.992       .  S
C1061      C1066   1.407       .  A
C1062      C1063   1.407       .  A
C1062      H1067   1.084       .  S
C1063      C1064   1.417       .  A
C1063      O1068   1.371       .  S
C1065      C1066   1.398       .  A
C1065      H1069   1.083       .  S
C1066      O1070   1.373       .  S
O1068      H1072   0.992       .  S
O1070      H1071   0.991       .  S
C1073      C1078   1.407       .  A
C1074      C1075   1.406       .  A
C1074      H1079   1.084       .  S
C1075      C1076   1.418       .  A
C1075      O1080   1.372       .  S
C1077      C1078   1.393       .  A
C1077      H1081   1.083       .  S
C1078      O1082   1.372       .  S
O1080      H1084   0.993       .  S
O1082      H1083   0.990       .  S
C1085      C1086   1.400       .  A
C1085      C1090   1.406       .  A
C1086      C1087   1.404       .  A
C1086      H1091   1.084       .  S
C1087      C1088   1.416       .  A
C1087      O1092   1.371       .  S
C1088      C1089   1.404       .  A
C1089      C1090   1.392       .  A
C1089      H1093   1.084       .  S
C1090      O1094   1.372       .  S
O1092      H1096   0.991       .  S
O1094      H1095   0.993       .  S
C1097      C1098   1.411       .  A
C1097      C1102   1.412       .  A
C1098      C1099   1.404       .  A
C1098      H1103   1.083       .  S
C1099      C1100   1.404       .  A
C1099      O1104   1.371       .  S
C1100      C1101   1.400       .  A
C1101      C1102   1.395       .  A
C1101      H1105   1.084       .  S
C1102      O1106   1.373       .  S
O1104      H1108   0.991       .  S
O1106      H1107   0.992       .  S
C1109      C1110   1.402       .  A
C1110      C1111   1.401       .  A
C1110      H1115   1.084       .  S
C1111      O1116   1.373       .  S
C1112      C1113   1.410       .  A
C1113      C1114   1.402       .  A
C1113      H1117   1.083       .  S
C1114      O1118   1.371       .  S
O1116      H1120   0.991       .  S
O1118      H1119   0.990       .  S
C1121      C1122   1.400       .  A
C1122      C1123   1.396       .  A
C1122      H1127   1.084       .  S
C1123      O1128   1.373       .  S
C1124      C1125   1.411       .  A
C1125      C1126   1.404       .  A
C1125      H1129   1.083       .  S
C1126      O1130   1.371       .  S
O1128      H1132   0.992       .  S
O1130      H1131   0.991       .  S
C1133      C1134   1.402       .  A
C1133      C1138   1.404       .  A
C1134      C1135   1.395       .  A
C1134      H1139   1.084       .  S
C1135      C1136   1.413       .  A
C1135      O1140   1.372       .  S
C1136      C1137   1.410       .  A
C1137      C1138   1.403       .  A
C1137      H1141   1.083       .  S
C1138      O1142   1.371       .  S
O1140      H1144   0.992       .  S
O1142      H1143   0.991       .  S
C1145      C1146   1.410       .  A
C1145      C1150   1.414       .  A
C1146      C1147   1.407       .  A
C1146      H1151   1.083       .  S
C1147      C1148   1.406       .  A
C1147      O1152   1.371       .  S
C1148      C1149   1.400       .  A
C1149      C1150   1.398       .  A
C1149      H1153   1.084       .  S
C1150      O1154   1.373       .  S
O1152      H1156   0.991       .  S
O1154      H1155   0.992       .  S
C1157      C1203   1.473       .  S
C1157      C1634   1.407       .  A
C1158      C1159   1.398       .  A
C1159      C1868   1.410   1_545  A
C1159      O1164   1.372       .  S
C1160      C1867   1.410       .  A
C1161      C1162   1.402       .  A
C1162      C1629   1.407       .  A
C1162      O1166   1.371       .  S
O1164      H1168   0.991       .  S
O1166      H1167   0.993       .  S
C1169      C1170   1.402       .  A
C1169      C1410   1.409       .  A
C1170      C1171   1.404       .  A
C1170      H1175   1.084       .  S
C1171      C1172   1.412       .  A
C1171      O1176   1.372       .  S
C1172      C1409   1.405       .  A
C1173      C1408   1.405       .  A
C1173      C1174   1.402       .  A
C1173      H1177   1.084       .  S
C1174      C1405   1.409       .  A
C1174      O1178   1.372       .  S
O1176      H1180   0.990       .  S
O1178      H1179   0.993       .  S
Zn1181     O1185   1.944       .  S
Zn1181     O1190   1.998       .  S
Zn1181     O1197   1.996       .  S
Zn1182     O1187   2.027       .  S
Zn1182     O1189   2.024       .  S
Zn1182     O1193   1.987       .  S
Zn1183     O1185   1.953       .  S
Zn1183     O1188   2.025       .  S
Zn1183     O1191   2.030       .  S
Zn1183     O1194   2.003       .  S
Zn1184     O1195   2.039       .  S
Zn1184     O1196   2.037       .  S
O1186      C1198   1.273       .  A
O1187      C1199   1.275   1_556  A
O1188      C1200   1.273       .  A
O1189      C1198   1.274       .  A
O1190      C1200   1.272       .  A
O1192      C1201   1.277       .  A
O1193      C1202   1.271       .  A
O1194      C1201   1.273       .  A
O1195      C1202   1.275       .  A
O1197      C1203   1.271       .  A
C1198      C1348   1.488       .  S
C1199      C1408   1.484       .  S
C1200      C1360   1.487       .  S
C1201      C1384   1.475       .  S
C1202      C1369   1.473       .  S
Zn1204     O1208   1.950   1_556  S
Zn1204     O1209   2.020       .  S
Zn1204     O1213   2.011       .  S
Zn1204     O1220   1.989       .  S
Zn1205     O1210   2.014       .  S
Zn1205     O1212   2.009       .  S
Zn1205     O1216   1.978       .  S
Zn1206     O1208   1.943       .  S
Zn1206     O1211   2.000   1_554  S
Zn1206     O1217   2.009       .  S
Zn1207     O1208   1.989       .  S
Zn1207     O1215   2.049       .  S
Zn1207     O1219   2.054   1_554  S
O1209      C1221   1.274   1_556  A
O1210      C1222   1.271       .  A
O1211      C1223   1.274       .  A
O1213      C1223   1.272       .  A
O1214      C1222   1.271       .  A
O1215      C1224   1.277       .  A
O1216      C1225   1.271       .  A
O1217      C1224   1.272       .  A
O1218      C1225   1.277       .  A
O1219      C1226   1.276       .  A
O1220      C1226   1.271       .  A
C1221      C1396   1.478       .  S
C1222      C1333   1.486       .  S
C1223      C1324   1.484       .  S
C1224      C1405   1.478       .  S
C1225      C1309   1.472       .  S
C1226      C1297   1.475       .  S
Zn1227     O1231   1.952       .  S
Zn1227     O1232   2.024       .  S
Zn1227     O1236   2.016       .  S
Zn1227     O1243   2.008       .  S
Zn1228     O1231   1.955       .  S
Zn1228     O1233   2.044       .  S
Zn1228     O1235   2.029       .  S
Zn1228     O1239   1.987       .  S
Zn1229     O1231   1.941       .  S
Zn1229     O1234   2.006       .  S
Zn1229     O1237   1.998       .  S
Zn1229     O1240   2.002       .  S
Zn1230     O1231   1.986       .  S
Zn1230     O1238   2.037       .  S
Zn1230     O1241   2.044       .  S
Zn1230     O1242   2.038       .  S
O1232      C1244   1.275       .  A
O1233      C1245   1.275       .  A
O1234      C1246   1.273       .  A
O1235      C1244   1.275       .  A
O1236      C1246   1.273       .  A
O1237      C1245   1.272       .  A
O1238      C1247   1.275       .  A
O1239      C1248   1.271       .  A
O1240      C1247   1.271       .  A
O1241      C1248   1.275       .  A
O1242      C1249   1.275       .  A
O1243      C1249   1.273       .  A
C1244      C1273   1.476       .  S
C1245      C1381   1.490       .  S
C1246      C1372   1.487       .  S
C1247      C1285   1.476       .  S
C1248      C1357   1.470       .  S
C1249      C1345   1.474       .  S
Zn1250     O1254   1.949       .  S
Zn1250     O1255   2.031       .  S
Zn1250     O1259   1.978       .  S
Zn1250     O1266   2.028       .  S
Zn1251     O1254   1.942       .  S
Zn1251     O1256   2.004       .  S
Zn1251     O1258   2.014       .  S
Zn1251     O1262   2.008       .  S
Zn1252     O1254   1.993       .  S
Zn1252     O1257   2.036       .  S
Zn1252     O1260   2.036       .  S
Zn1252     O1263   2.036       .  S
Zn1253     O1254   1.949       .  S
Zn1253     O1261   1.991       .  S
Zn1253     O1264   2.012       .  S
Zn1253     O1265   2.026       .  S
O1255      C1267   1.273       .  A
O1256      C1268   1.272       .  A
O1257      C1269   1.275       .  A
O1258      C1267   1.274       .  A
O1259      C1269   1.271       .  A
O1260      C1268   1.275       .  A
O1261      C1270   1.272       .  A
O1262      C1271   1.274       .  A
O1263      C1270   1.274       .  A
O1264      C1271   1.271       .  A
O1265      C1272   1.275       .  A
O1266      C1272   1.275       .  A
C1267      C1300   1.492       .  S
C1268      C1276   1.483       .  S
C1269      C1321   1.468       .  S
C1270      C1336   1.470       .  S
C1271      C1312   1.487       .  S
C1272      C1288   1.483       .  S
C1273      C1750   1.406   1_545  A
C1274      C1275   1.404   1_545  A
C1274      H1279   1.084       .  S
C1275      C1748   1.411       .  A
C1275      O1280   1.371       .  S
C1276      C1747   1.411       .  A
C1277      C1278   1.398       .  A
C1277      H1281   1.084       .  S
C1278      C1745   1.406       .  A
C1278      O1282   1.372       .  S
O1280      H1284   0.994   1_565  S
O1282      H1283   0.991       .  S
C1285      C1286   1.403       .  A
C1285      C1290   1.407       .  A
C1286      C1287   1.401       .  A
C1286      H1291   1.084       .  S
C1287      C1288   1.411       .  A
C1287      O1292   1.372       .  S
C1288      C1289   1.406       .  A
C1289      C1290   1.402       .  A
C1289      H1293   1.084       .  S
C1290      O1294   1.372       .  S
O1292      H1296   0.991       .  S
O1294      H1295   0.992       .  S
C1297      C1302   1.407       .  A
C1298      C1299   1.407       .  A
C1298      H1303   1.084       .  S
C1299      C1300   1.417       .  A
C1299      O1304   1.371       .  S
C1301      C1302   1.398       .  A
C1301      H1305   1.083       .  S
C1302      O1306   1.373       .  S
O1304      H1308   0.992       .  S
O1306      H1307   0.991       .  S
C1309      C1314   1.407       .  A
C1310      C1311   1.406       .  A
C1310      H1315   1.084       .  S
C1311      C1312   1.418       .  A
C1311      O1316   1.372       .  S
C1313      C1314   1.393       .  A
C1313      H1317   1.083       .  S
C1314      O1318   1.372       .  S
O1316      H1320   0.993       .  S
O1318      H1319   0.990       .  S
C1321      C1322   1.400       .  A
C1321      C1326   1.406       .  A
C1322      C1323   1.404       .  A
C1322      H1327   1.084       .  S
C1323      C1324   1.416       .  A
C1323      O1328   1.371       .  S
C1324      C1325   1.404       .  A
C1325      C1326   1.392       .  A
C1325      H1329   1.084       .  S
C1326      O1330   1.372       .  S
O1328      H1332   0.991       .  S
O1330      H1331   0.993       .  S
C1333      C1334   1.411       .  A
C1333      C1338   1.412       .  A
C1334      C1335   1.404       .  A
C1334      H1339   1.083       .  S
C1335      C1336   1.404       .  A
C1335      O1340   1.371       .  S
C1336      C1337   1.400       .  A
C1337      C1338   1.395       .  A
C1337      H1341   1.084       .  S
C1338      O1342   1.373       .  S
O1340      H1344   0.991       .  S
O1342      H1343   0.992       .  S
C1345      C1346   1.402       .  A
C1346      C1347   1.401       .  A
C1346      H1351   1.084       .  S
C1347      O1352   1.373       .  S
C1348      C1349   1.410       .  A
C1349      C1350   1.402       .  A
C1349      H1353   1.083       .  S
C1350      O1354   1.371       .  S
O1352      H1356   0.991       .  S
O1354      H1355   0.990       .  S
C1357      C1358   1.400       .  A
C1358      C1359   1.396       .  A
C1358      H1363   1.084       .  S
C1359      O1364   1.373       .  S
C1360      C1361   1.411       .  A
C1361      C1362   1.404       .  A
C1361      H1365   1.083       .  S
C1362      O1366   1.371       .  S
O1364      H1368   0.992       .  S
O1366      H1367   0.991       .  S
C1369      C1370   1.402       .  A
C1369      C1374   1.404       .  A
C1370      C1371   1.395       .  A
C1370      H1375   1.084       .  S
C1371      C1372   1.413       .  A
C1371      O1376   1.372       .  S
C1372      C1373   1.410       .  A
C1373      C1374   1.403       .  A
C1373      H1377   1.083       .  S
C1374      O1378   1.371       .  S
O1376      H1380   0.992       .  S
O1378      H1379   0.991       .  S
C1381      C1382   1.410       .  A
C1381      C1386   1.414       .  A
C1382      C1383   1.407       .  A
C1382      H1387   1.083       .  S
C1383      C1384   1.406       .  A
C1383      O1388   1.371       .  S
C1384      C1385   1.400       .  A
C1385      C1386   1.398       .  A
C1385      H1389   1.084       .  S
C1386      O1390   1.373       .  S
O1388      H1392   0.991       .  S
O1390      H1391   0.992       .  S
C1393      C1870   1.407   1_554  A
C1394      C1395   1.398       .  A
C1395      C1632   1.410   1_545  A
C1395      O1400   1.372       .  S
C1396      C1631   1.410       .  A
C1397      C1398   1.402       .  A
C1398      C1865   1.407   1_556  A
C1398      O1402   1.371       .  S
O1400      H1404   0.991       .  S
O1402      H1403   0.993       .  S
C1405      C1406   1.402   1_554  A
C1406      C1407   1.404       .  A
C1406      H1411   1.084       .  S
C1407      C1408   1.412   1_556  A
C1407      O1412   1.372       .  S
C1409      C1410   1.402       .  A
C1409      H1413   1.084       .  S
C1410      O1414   1.372       .  S
O1412      H1416   0.990       .  S
O1414      H1415   0.993       .  S
Zn1417     O1421   1.944   1_554  S
Zn1417     O1658   2.011   1_554  S
Zn1417     O1426   1.997       .  S
Zn1417     O1433   1.996       .  S
Zn1418     O1657   1.950       .  S
Zn1418     O1423   2.027       .  S
Zn1418     O1425   2.024       .  S
Zn1418     O1429   1.987       .  S
Zn1419     O1421   1.953   1_554  S
Zn1419     O1424   2.025       .  S
Zn1419     O1427   2.030       .  S
Zn1419     O1430   2.003       .  S
Zn1420     O1657   1.993       .  S
Zn1420     O1664   2.053       .  S
Zn1420     O1431   2.039       .  S
Zn1420     O1432   2.037       .  S
O1421     Zn1654   1.950       .  S
O1421     Zn1656   1.993       .  S
O1422     Zn1653   2.011       .  S
O1422      C1434   1.273       .  A
O1423      C1435   1.275       .  A
O1424      C1436   1.273       .  A
O1425      C1434   1.274       .  A
O1426      C1436   1.272       .  A
O1427      C1671   1.276       .  A
O1428     Zn1656   2.053   1_554  S
O1428      C1437   1.277       .  A
O1429      C1438   1.271       .  A
O1430      C1437   1.273       .  A
O1431      C1438   1.275       .  A
O1432      C1675   1.275       .  A
O1433      C1439   1.271   1_554  A
C1434      C1584   1.488       .  S
C1435      O1663   1.276       .  A
C1435      C1644   1.484       .  S
C1436      C1596   1.487       .  S
C1437      C1620   1.475       .  S
C1438      C1605   1.473       .  S
C1439      O1668   1.275       .  A
C1439      C1865   1.473   1_556  S
Zn1440     O1444   1.950       .  S
Zn1440     O1445   2.020       .  S
Zn1440     O1449   2.011       .  S
Zn1440     O1456   1.989       .  S
Zn1441     O1680   1.948       .  S
Zn1441     O1446   2.014       .  S
Zn1441     O1448   2.009       .  S
Zn1441     O1452   1.978       .  S
Zn1442     O1444   1.943       .  S
Zn1442     O1447   2.000       .  S
Zn1442     O1686   2.003       .  S
Zn1442     O1453   2.009       .  S
Zn1443     O1444   1.989       .  S
Zn1443     O1451   2.049       .  S
Zn1443     O1690   2.050       .  S
Zn1443     O1455   2.054       .  S
O1444     Zn1677   1.948       .  S
O1445      C1457   1.274       .  A
O1446      C1458   1.271       .  A
O1447      C1459   1.274       .  A
O1448      C1693   1.272       .  A
O1449      C1459   1.272       .  A
O1450     Zn1678   2.003       .  S
O1450      C1458   1.271       .  A
O1451      C1460   1.277       .  A
O1452      C1461   1.271       .  A
O1453      C1460   1.272       .  A
O1454     Zn1679   2.050       .  S
O1454      C1461   1.277       .  A
O1455      C1462   1.276       .  A
O1456      C1462   1.271       .  A
C1457      O1684   1.272       .  A
C1457      C1632   1.478       .  S
C1458      C1569   1.486       .  S
C1459      C1560   1.484       .  S
C1460      C1641   1.478       .  S
C1461      C1545   1.472       .  S
C1462      C1533   1.475       .  S
Zn1463     O1467   1.952       .  S
Zn1463     O1468   2.024       .  S
Zn1463     O1472   2.016       .  S
Zn1463     O1479   2.008       .  S
Zn1464     O1467   1.955       .  S
Zn1464     O1469   2.044       .  S
Zn1464     O1471   2.029       .  S
Zn1464     O1475   1.987       .  S
Zn1465     O1467   1.941       .  S
Zn1465     O1470   2.006       .  S
Zn1465     O1473   1.998       .  S
Zn1465     O1476   2.002       .  S
Zn1466     O1467   1.986       .  S
Zn1466     O1474   2.037       .  S
Zn1466     O1477   2.044       .  S
Zn1466     O1478   2.038       .  S
O1468      C1480   1.275       .  A
O1469      C1481   1.275       .  A
O1470      C1482   1.273       .  A
O1471      C1480   1.275       .  A
O1472      C1482   1.273       .  A
O1473      C1481   1.272       .  A
O1474      C1483   1.275       .  A
O1475      C1484   1.271       .  A
O1476      C1483   1.271       .  A
O1477      C1484   1.275       .  A
O1478      C1485   1.275       .  A
O1479      C1485   1.273       .  A
C1480      C1509   1.476       .  S
C1481      C1617   1.490       .  S
C1482      C1608   1.487       .  S
C1483      C1521   1.476       .  S
C1484      C1593   1.470       .  S
C1485      C1581   1.474       .  S
Zn1486     O1490   1.949       .  S
Zn1486     O1491   2.031       .  S
Zn1486     O1495   1.978       .  S
Zn1486     O1502   2.028       .  S
Zn1487     O1490   1.942       .  S
Zn1487     O1492   2.004       .  S
Zn1487     O1494   2.014       .  S
Zn1487     O1498   2.008       .  S
Zn1488     O1490   1.993       .  S
Zn1488     O1493   2.036       .  S
Zn1488     O1496   2.036       .  S
Zn1488     O1499   2.036       .  S
Zn1489     O1490   1.949       .  S
Zn1489     O1497   1.991       .  S
Zn1489     O1500   2.012       .  S
Zn1489     O1501   2.026       .  S
O1491      C1503   1.273       .  A
O1492      C1504   1.272       .  A
O1493      C1505   1.275       .  A
O1494      C1503   1.274       .  A
O1495      C1505   1.271       .  A
O1496      C1504   1.275       .  A
O1497      C1506   1.272       .  A
O1498      C1507   1.274       .  A
O1499      C1506   1.274       .  A
O1500      C1507   1.271       .  A
O1501      C1508   1.275       .  A
O1502      C1508   1.275       .  A
C1503      C1536   1.492       .  S
C1504      C1512   1.483       .  S
C1505      C1557   1.468       .  S
C1506      C1572   1.470       .  S
C1507      C1548   1.487       .  S
C1508      C1524   1.483       .  S
C1510      C1511   1.404       .  A
C1510      H1515   1.084       .  S
C1511      O1516   1.371       .  S
C1513      C1514   1.398       .  A
C1513      H1517   1.084       .  S
C1514      O1518   1.372       .  S
O1516      H1520   0.994       .  S
O1518      H1519   0.991       .  S
C1521      C1522   1.403       .  A
C1521      C1526   1.407       .  A
C1522      C1523   1.401       .  A
C1522      H1527   1.084       .  S
C1523      C1524   1.411       .  A
C1523      O1528   1.372       .  S
C1524      C1525   1.406       .  A
C1525      C1526   1.402       .  A
C1525      H1529   1.084       .  S
C1526      O1530   1.372       .  S
O1528      H1532   0.991       .  S
O1530      H1531   0.992       .  S
C1533      C1538   1.407       .  A
C1534      C1535   1.407       .  A
C1534      H1539   1.084       .  S
C1535      C1536   1.417       .  A
C1535      O1540   1.371       .  S
C1537      C1538   1.398       .  A
C1537      H1541   1.083       .  S
C1538      O1542   1.373       .  S
O1540      H1544   0.992       .  S
O1542      H1543   0.991       .  S
C1545      C1550   1.407       .  A
C1546      C1547   1.406       .  A
C1546      H1551   1.084       .  S
C1547      C1548   1.418       .  A
C1547      O1552   1.372       .  S
C1549      C1550   1.393       .  A
C1549      H1553   1.083       .  S
C1550      O1554   1.372       .  S
O1552      H1556   0.993       .  S
O1554      H1555   0.990       .  S
C1557      C1558   1.400       .  A
C1557      C1562   1.406       .  A
C1558      C1559   1.404       .  A
C1558      H1563   1.084       .  S
C1559      C1560   1.416       .  A
C1559      O1564   1.371       .  S
C1560      C1561   1.404       .  A
C1561      C1562   1.392       .  A
C1561      H1565   1.084       .  S
C1562      O1566   1.372       .  S
O1564      H1568   0.991       .  S
O1566      H1567   0.993       .  S
C1569      C1570   1.411       .  A
C1569      C1574   1.412       .  A
C1570      C1571   1.404       .  A
C1570      H1575   1.083       .  S
C1571      C1572   1.404       .  A
C1571      O1576   1.371       .  S
C1572      C1573   1.400       .  A
C1573      C1574   1.395       .  A
C1573      H1577   1.084       .  S
C1574      O1578   1.373       .  S
O1576      H1580   0.991       .  S
O1578      H1579   0.992       .  S
C1581      C1582   1.402       .  A
C1582      C1583   1.401       .  A
C1582      H1587   1.084       .  S
C1583      O1588   1.373       .  S
C1584      C1585   1.410       .  A
C1585      C1586   1.402       .  A
C1585      H1589   1.083       .  S
C1586      O1590   1.371       .  S
O1588      H1592   0.991       .  S
O1590      H1591   0.990       .  S
C1593      C1594   1.400       .  A
C1594      C1595   1.396       .  A
C1594      H1599   1.084       .  S
C1595      O1600   1.373       .  S
C1596      C1597   1.411       .  A
C1597      C1598   1.404       .  A
C1597      H1601   1.083       .  S
C1598      O1602   1.371       .  S
O1600      H1604   0.992       .  S
O1602      H1603   0.991       .  S
C1605      C1606   1.402       .  A
C1605      C1610   1.404       .  A
C1606      C1607   1.395       .  A
C1606      H1611   1.084       .  S
C1607      C1608   1.413       .  A
C1607      O1612   1.372       .  S
C1608      C1609   1.410       .  A
C1609      C1610   1.403       .  A
C1609      H1613   1.083       .  S
C1610      O1614   1.371       .  S
O1612      H1616   0.992       .  S
O1614      H1615   0.991       .  S
C1617      C1618   1.410       .  A
C1617      C1622   1.414       .  A
C1618      C1619   1.407       .  A
C1618      H1623   1.083       .  S
C1619      C1620   1.406       .  A
C1619      O1624   1.371       .  S
C1620      C1621   1.400       .  A
C1621      C1622   1.398       .  A
C1621      H1625   1.084       .  S
C1622      O1626   1.373       .  S
O1624      H1628   0.991       .  S
O1626      H1627   0.992       .  S
C1629      C1675   1.473       .  S
C1630      C1631   1.398       .  A
C1631      O1636   1.372       .  S
C1633      C1634   1.402   1_565  A
C1634      O1638   1.371       .  S
O1636      H1640   0.991       .  S
O1638      H1639   0.993   1_545  S
C1641      C1642   1.402       .  A
C1641      C1882   1.409       .  A
C1642      C1643   1.404       .  A
C1642      H1647   1.084       .  S
C1643      C1644   1.412       .  A
C1643      O1648   1.372       .  S
C1644      C1881   1.405       .  A
C1645      C1880   1.405       .  A
C1645      C1646   1.402       .  A
C1645      H1649   1.084       .  S
C1646      C1877   1.409       .  A
C1646      O1650   1.372       .  S
O1648      H1652   0.990       .  S
O1650      H1651   0.993       .  S
Zn1653     O1657   1.944       .  S
Zn1653     O1662   1.998       .  S
Zn1653     O1669   1.996       .  S
Zn1654     O1659   2.027       .  S
Zn1654     O1661   2.024       .  S
Zn1654     O1665   1.987       .  S
Zn1655     O1657   1.953       .  S
Zn1655     O1660   2.025       .  S
Zn1655     O1663   2.030       .  S
Zn1655     O1666   2.003       .  S
Zn1656     O1667   2.039       .  S
Zn1656     O1668   2.037       .  S
O1658      C1670   1.273       .  A
O1659      C1671   1.275   1_556  A
O1660      C1672   1.273       .  A
O1661      C1670   1.274       .  A
O1662      C1672   1.272       .  A
O1664      C1673   1.277       .  A
O1665      C1674   1.271       .  A
O1666      C1673   1.273       .  A
O1667      C1674   1.275       .  A
O1669      C1675   1.271       .  A
C1670      C1820   1.488       .  S
C1671      C1880   1.484       .  S
C1672      C1832   1.487       .  S
C1673      C1856   1.475       .  S
C1674      C1841   1.473       .  S
Zn1676     O1680   1.950   1_556  S
Zn1676     O1681   2.020       .  S
Zn1676     O1685   2.011       .  S
Zn1676     O1692   1.989       .  S
Zn1677     O1682   2.014       .  S
Zn1677     O1684   2.009       .  S
Zn1677     O1688   1.978       .  S
Zn1678     O1680   1.943       .  S
Zn1678     O1683   2.000   1_554  S
Zn1678     O1689   2.009       .  S
Zn1679     O1680   1.989       .  S
Zn1679     O1687   2.049       .  S
Zn1679     O1691   2.054   1_554  S
O1681      C1693   1.274   1_556  A
O1682      C1694   1.271       .  A
O1683      C1695   1.274       .  A
O1685      C1695   1.272       .  A
O1686      C1694   1.271       .  A
O1687      C1696   1.277       .  A
O1688      C1697   1.271       .  A
O1689      C1696   1.272       .  A
O1690      C1697   1.277       .  A
O1691      C1698   1.276       .  A
O1692      C1698   1.271       .  A
C1693      C1868   1.478       .  S
C1694      C1805   1.486       .  S
C1695      C1796   1.484       .  S
C1696      C1877   1.478       .  S
C1697      C1781   1.472       .  S
C1698      C1769   1.475       .  S
Zn1699     O1703   1.952       .  S
Zn1699     O1704   2.024       .  S
Zn1699     O1708   2.016       .  S
Zn1699     O1715   2.008       .  S
Zn1700     O1703   1.955       .  S
Zn1700     O1705   2.044       .  S
Zn1700     O1707   2.029       .  S
Zn1700     O1711   1.987       .  S
Zn1701     O1703   1.941       .  S
Zn1701     O1706   2.006       .  S
Zn1701     O1709   1.998       .  S
Zn1701     O1712   2.002       .  S
Zn1702     O1703   1.986       .  S
Zn1702     O1710   2.037       .  S
Zn1702     O1713   2.044       .  S
Zn1702     O1714   2.038       .  S
O1704      C1716   1.275       .  A
O1705      C1717   1.275       .  A
O1706      C1718   1.273       .  A
O1707      C1716   1.275       .  A
O1708      C1718   1.273       .  A
O1709      C1717   1.272       .  A
O1710      C1719   1.275       .  A
O1711      C1720   1.271       .  A
O1712      C1719   1.271       .  A
O1713      C1720   1.275       .  A
O1714      C1721   1.275       .  A
O1715      C1721   1.273       .  A
C1716      C1745   1.476       .  S
C1717      C1853   1.490       .  S
C1718      C1844   1.487       .  S
C1719      C1757   1.476       .  S
C1720      C1829   1.470       .  S
C1721      C1817   1.474       .  S
Zn1722     O1726   1.949       .  S
Zn1722     O1727   2.031       .  S
Zn1722     O1731   1.978       .  S
Zn1722     O1738   2.028       .  S
Zn1723     O1726   1.942       .  S
Zn1723     O1728   2.004       .  S
Zn1723     O1730   2.014       .  S
Zn1723     O1734   2.008       .  S
Zn1724     O1726   1.993       .  S
Zn1724     O1729   2.036       .  S
Zn1724     O1732   2.036       .  S
Zn1724     O1735   2.036       .  S
Zn1725     O1726   1.949       .  S
Zn1725     O1733   1.991       .  S
Zn1725     O1736   2.012       .  S
Zn1725     O1737   2.026       .  S
O1727      C1739   1.273       .  A
O1728      C1740   1.272       .  A
O1729      C1741   1.275       .  A
O1730      C1739   1.274       .  A
O1731      C1741   1.271       .  A
O1732      C1740   1.275       .  A
O1733      C1742   1.272       .  A
O1734      C1743   1.274       .  A
O1735      C1742   1.274       .  A
O1736      C1743   1.271       .  A
O1737      C1744   1.275       .  A
O1738      C1744   1.275       .  A
C1739      C1772   1.492       .  S
C1740      C1748   1.483       .  S
C1741      C1793   1.468       .  S
C1742      C1808   1.470       .  S
C1743      C1784   1.487       .  S
C1744      C1760   1.483       .  S
C1746      C1747   1.404       .  A
C1746      H1751   1.084       .  S
C1747      O1752   1.371       .  S
C1749      C1750   1.398       .  A
C1749      H1753   1.084       .  S
C1750      O1754   1.372       .  S
O1752      H1756   0.994       .  S
O1754      H1755   0.991       .  S
C1757      C1758   1.403       .  A
C1757      C1762   1.407       .  A
C1758      C1759   1.401       .  A
C1758      H1763   1.084       .  S
C1759      C1760   1.411       .  A
C1759      O1764   1.372       .  S
C1760      C1761   1.406       .  A
C1761      C1762   1.402       .  A
C1761      H1765   1.084       .  S
C1762      O1766   1.372       .  S
O1764      H1768   0.991       .  S
O1766      H1767   0.992       .  S
C1769      C1774   1.407       .  A
C1770      C1771   1.407       .  A
C1770      H1775   1.084       .  S
C1771      C1772   1.417       .  A
C1771      O1776   1.371       .  S
C1773      C1774   1.398       .  A
C1773      H1777   1.083       .  S
C1774      O1778   1.373       .  S
O1776      H1780   0.992       .  S
O1778      H1779   0.991       .  S
C1781      C1786   1.407       .  A
C1782      C1783   1.406       .  A
C1782      H1787   1.084       .  S
C1783      C1784   1.418       .  A
C1783      O1788   1.372       .  S
C1785      C1786   1.393       .  A
C1785      H1789   1.083       .  S
C1786      O1790   1.372       .  S
O1788      H1792   0.993       .  S
O1790      H1791   0.990       .  S
C1793      C1794   1.400       .  A
C1793      C1798   1.406       .  A
C1794      C1795   1.404       .  A
C1794      H1799   1.084       .  S
C1795      C1796   1.416       .  A
C1795      O1800   1.371       .  S
C1796      C1797   1.404       .  A
C1797      C1798   1.392       .  A
C1797      H1801   1.084       .  S
C1798      O1802   1.372       .  S
O1800      H1804   0.991       .  S
O1802      H1803   0.993       .  S
C1805      C1806   1.411       .  A
C1805      C1810   1.412       .  A
C1806      C1807   1.404       .  A
C1806      H1811   1.083       .  S
C1807      C1808   1.404       .  A
C1807      O1812   1.371       .  S
C1808      C1809   1.400       .  A
C1809      C1810   1.395       .  A
C1809      H1813   1.084       .  S
C1810      O1814   1.373       .  S
O1812      H1816   0.991       .  S
O1814      H1815   0.992       .  S
C1817      C1818   1.402       .  A
C1818      C1819   1.401       .  A
C1818      H1823   1.084       .  S
C1819      O1824   1.373       .  S
C1820      C1821   1.410       .  A
C1821      C1822   1.402       .  A
C1821      H1825   1.083       .  S
C1822      O1826   1.371       .  S
O1824      H1828   0.991       .  S
O1826      H1827   0.990       .  S
C1829      C1830   1.400       .  A
C1830      C1831   1.396       .  A
C1830      H1835   1.084       .  S
C1831      O1836   1.373       .  S
C1832      C1833   1.411       .  A
C1833      C1834   1.404       .  A
C1833      H1837   1.083       .  S
C1834      O1838   1.371       .  S
O1836      H1840   0.992       .  S
O1838      H1839   0.991       .  S
C1841      C1842   1.402       .  A
C1841      C1846   1.404       .  A
C1842      C1843   1.395       .  A
C1842      H1847   1.084       .  S
C1843      C1844   1.413       .  A
C1843      O1848   1.372       .  S
C1844      C1845   1.410       .  A
C1845      C1846   1.403       .  A
C1845      H1849   1.083       .  S
C1846      O1850   1.371       .  S
O1848      H1852   0.992       .  S
O1850      H1851   0.991       .  S
C1853      C1854   1.410       .  A
C1853      C1858   1.414       .  A
C1854      C1855   1.407       .  A
C1854      H1859   1.083       .  S
C1855      C1856   1.406       .  A
C1855      O1860   1.371       .  S
C1856      C1857   1.400       .  A
C1857      C1858   1.398       .  A
C1857      H1861   1.084       .  S
C1858      O1862   1.373       .  S
O1860      H1864   0.991       .  S
O1862      H1863   0.992       .  S
C1866      C1867   1.398       .  A
C1867      O1872   1.372       .  S
C1869      C1870   1.402   1_565  A
C1870      O1874   1.371       .  S
O1872      H1876   0.991       .  S
O1874      H1875   0.993   1_545  S
C1877      C1878   1.402   1_554  A
C1878      C1879   1.404       .  A
C1878      H1883   1.084       .  S
C1879      C1880   1.412   1_556  A
C1879      O1884   1.372       .  S
C1881      C1882   1.402       .  A
C1881      H1885   1.084       .  S
C1882      O1886   1.372       .  S
O1884      H1888   0.990       .  S
O1886      H1887   0.993       .  S
