geometry optimzed in LAMMPS
_audit_creation_date              2020-12-01 
_audit_creation_method            'lammps2cif' 
_symmetry_space_group_name_H-M    'P1' 
_symmetry_Int_Tables_number       1 
_symmetry_cell_setting            triclinic 
loop_ 
_symmetry_equiv_pos_as_xyz 
  x,y,z 
_cell_length_a                    47.74819138 
_cell_length_b                    33.55438416225502 
_cell_length_c                    34.01274383397761 
_cell_angle_alpha                 90.54423409452517 
_cell_angle_beta                  89.88642403836128 
_cell_angle_gamma                 89.98212866473985 
loop_ 
_atom_site_label 
_atom_site_type_symbol 
_atom_site_fract_x 
_atom_site_fract_y 
_atom_site_fract_z 
_atom_site_charge 
O1          O  0.16419444  0.27851023  0.02337501    -0.87900
C2          C  0.08891232  0.30951387  0.06901274     0.88200
Mg3        Mg  0.17712381  0.29172783  0.96488663     1.58100
O4          O  0.09754907  0.20825434  0.04666248    -0.87600
O5          O  0.16084905  0.22721110  0.06244577    -0.74900
C6          C  0.06923172  0.23443978  0.85406242     0.93200
O7          O  0.12622498  0.35319701  0.00289049    -0.74700
O8          O  0.08984253  0.25850641  0.85242040    -0.82200
Mg9        Mg  0.14759871  0.32677708  0.05758534     1.58000
C10         C  0.03838606  0.14563100  0.98671875     0.93100
O11         O  0.16992393  0.30479722  0.11322652    -0.80500
H12         H  0.11907157  0.15761385  0.05292621    -0.05900
C13         C  0.05878929  0.27340858  0.96063831     0.88100
O14         O  0.16648541  0.22825798  0.94460043    -0.75000
O15         O  0.11157206  0.29169013  0.06999546    -0.87800
O16         O  0.04125945  0.16755705  0.01718812    -0.80600
C17         C  0.05279912  0.22535200  0.13007498     0.93300
C18         C  0.16617817  0.28294411  0.14320309     0.93100
Mg19       Mg  0.08626301  0.19442365  0.94189761     1.58000
O20         O  0.06460116  0.21388465  0.88477387    -0.80500
O21         O  0.10732903  0.16852733  0.99676749    -0.74800
O22         O  0.07830523  0.23640695  0.13401751    -0.80600
O23         O  0.18473460  0.36651083  0.04513491    -0.82300
O24         O  0.15551126  0.28230240  0.86671118    -0.80600
C25         C  0.10806715  0.17724892  0.03322146     0.87500
O26         O  0.12190528  0.22982847  0.93011607    -0.87800
O27         O  0.06892098  0.24311289  0.97542488    -0.87900
O28         O  0.07218843  0.29380994  0.93552073    -0.74900
Mg29       Mg  0.11906571  0.23428135  0.09555702     1.58000
O30         O  0.04223591  0.21774234  0.09657896    -0.82300
H31         H  0.19451110  0.23768397  0.02753093    -0.06000
O32         O  0.13572295  0.31369434  0.95252973    -0.87600
H33         H  0.11395323  0.36424458  0.94693302    -0.05900
H34         H  0.14541106  0.18125736  0.92117925    -0.06000
C35         C  0.12516314  0.34455967  0.96636148     0.87500
C36         C  0.17418217  0.24780338  0.03745982     0.88100
C37         C  0.14453931  0.21200171  0.93092919     0.88200
H38         H  0.03827827  0.28332384  0.97001659    -0.06000
O39         O  0.06697554  0.29332806  0.05512573    -0.75000
Mg40       Mg  0.11446595  0.28642847  0.90350847     1.58000
H41         H  0.08801317  0.34024271  0.07881152    -0.06000
C42         C  0.19633451  0.37552904  0.01281135     0.93100
O43         O  0.19147964  0.30253079  0.90322930    -0.82300
C44         C  0.18121617  0.29238476  0.87025246     0.93200
O45         O  0.14482003  0.26029586  0.14616573    -0.82300
Mg46       Mg  0.05624646  0.22993592  0.03449290     1.58200
O47         O  0.19310196  0.35416752  0.98198498    -0.80600
O48         O  0.04976133  0.15432275  0.95419787    -0.82300
O49         O  0.43172315  0.77154212  0.02502955    -0.87900
C50         C  0.35427346  0.79376660  0.06979568     0.88200
Mg51       Mg  0.44382285  0.78549999  0.96587284     1.58100
O52         O  0.36848006  0.69340415  0.04809742    -0.87600
O53         O  0.43070180  0.72040176  0.06468380    -0.74900
C54         C  0.33795733  0.71899961  0.85565618     0.93200
O55         O  0.38902755  0.84070735  0.00321373    -0.74700
O56         O  0.35798648  0.74407720  0.85402860    -0.82200
Mg57       Mg  0.41149556  0.81802068  0.05844736     1.58000
C58         C  0.31216825  0.62469118  0.98806237     0.93100
O59         O  0.43456469  0.80100520  0.11578757    -0.80500
H60         H  0.39264130  0.64512720  0.05390151    -0.05900
C61         C  0.32689668  0.75463686  0.96238140     0.88100
O62         O  0.43637702  0.72073028  0.94602821    -0.75000
O63         O  0.37784109  0.77854365  0.07056753    -0.87800
O64         O  0.31437536  0.64652829  0.01868012    -0.80600
C65         C  0.32180910  0.70875518  0.13130062     0.93300
C66         C  0.43089891  0.77967894  0.14629685     0.93100
Mg67       Mg  0.35740452  0.67838090  0.94270533     1.58000
O68         O  0.33419215  0.69726218  0.88580878    -0.80500
O69         O  0.37982690  0.65467404  0.99789601    -0.74800
O70         O  0.34698460  0.72141981  0.13455191    -0.80600
O71         O  0.44518728  0.86296678  0.04542432    -0.82300
O72         O  0.42270739  0.77383186  0.86703146    -0.80600
C73         C  0.38051380  0.66359732  0.03438863     0.87500
O74         O  0.39180478  0.71703792  0.93088661    -0.87800
O75         O  0.33823315  0.72505587  0.97685190    -0.87900
O76         O  0.33936543  0.77625104  0.93732395    -0.74900
Mg77       Mg  0.38825421  0.72283953  0.09702543     1.58000
O78         O  0.31195441  0.69784166  0.09814255    -0.82300
H79         H  0.46412932  0.73425311  0.03046669    -0.06000
O80         O  0.40143132  0.80209803  0.95351809    -0.87600
H81         H  0.37689432  0.84983311  0.94688762    -0.05900
H82         H  0.41802020  0.67110417  0.92327513    -0.06000
C83         C  0.38900041  0.83174642  0.96677112     0.87500
C84         C  0.44318307  0.74218450  0.03976735     0.88100
C85         C  0.41539333  0.70182792  0.93244067     0.88200
H86         H  0.30607145  0.76285721  0.97197274    -0.06000
O87         O  0.33324353  0.77509068  0.05620531    -0.75000
Mg88       Mg  0.38168218  0.77313982  0.90475618     1.58000
H89         H  0.35172026  0.82431947  0.07955484    -0.06000
C90         C  0.45576163  0.87263767  0.01256141     0.93100
O91         O  0.45765206  0.79823843  0.90350932    -0.82300
C92         C  0.44758184  0.78753617  0.87047662     0.93200
O93         O  0.41164038  0.75339382  0.14770914    -0.82300
Mg94       Mg  0.32604592  0.71058621  0.03585140     1.58200
O95         O  0.45480523  0.84988647  0.98246801    -0.80600
O96         O  0.32242285  0.63475251  0.95511272    -0.82300
O97         O  0.41328733  0.22121957  0.47519276    -0.87900
C98         C  0.33730992  0.19228665  0.43042884     0.88200
Mg99       Mg  0.42661036  0.20794392  0.53340162     1.58100
O100        O  0.34703384  0.29313052  0.45383200    -0.87600
O101        O  0.41021597  0.27304863  0.43678732    -0.74900
C102        C  0.31914777  0.26370214  0.64550036     0.93200
O103        O  0.37421529  0.14777641  0.49638428    -0.74700
O104        O  0.34051607  0.24110675  0.64716221    -0.82200
Mg105      Mg  0.39538396  0.17348859  0.44128900     1.58000
C106        C  0.28820713  0.35593100  0.51438706     0.93100
O107        O  0.41747206  0.19472025  0.38509764    -0.80500
H108        H  0.36816355  0.34409291  0.44736870    -0.05900
C109        C  0.30869956  0.22738739  0.53935273     0.88100
O110        O  0.41648773  0.27162790  0.55388637    -0.75000
O111        O  0.36007575  0.20981018  0.42971045    -0.87800
O112        O  0.29140080  0.33432672  0.48378655    -0.80600
C113        C  0.30199131  0.27738919  0.37083384     0.93300
C114        C  0.41430493  0.21725208  0.35551137     0.93100
Mg115      Mg  0.33588497  0.30609039  0.55853853     1.58000
O116        O  0.31437454  0.28449742  0.61500152    -0.80500
O117        O  0.35664517  0.33296729  0.50367188    -0.74800
O118        O  0.32743960  0.26615033  0.36670245    -0.80600
O119        O  0.43138881  0.13191043  0.45311603    -0.82300
O120        O  0.40614673  0.21567476  0.63289163    -0.80600
C121        C  0.35738772  0.32426640  0.46718434     0.87500
O122        O  0.37200858  0.27062404  0.56950371    -0.87800
O123        O  0.31862799  0.25786701  0.52463693    -0.87900
O124        O  0.32226581  0.20699876  0.56424931    -0.74900
Mg125      Mg  0.36821269  0.26718711  0.40448881     1.58000
O126        O  0.29140621  0.28484958  0.40439299    -0.82300
H127        H  0.44413305  0.26116652  0.47053565    -0.06000
O128        O  0.38528356  0.18660208  0.54655072    -0.87600
H129        H  0.36291019  0.13669273  0.55276315    -0.05900
H130        H  0.39582803  0.31902213  0.57745617    -0.06000
C131        C  0.37406533  0.15613436  0.53298589     0.87500
C132        C  0.42355950  0.25174111  0.46107807     0.88100
C133        C  0.39472103  0.28822048  0.56794423     0.88200
H134        H  0.28818915  0.21737175  0.53021230    -0.06000
O135        O  0.31549787  0.20851421  0.44472521    -0.75000
Mg136      Mg  0.36472726  0.21365156  0.59589615     1.58000
H137        H  0.33622846  0.16173733  0.42012732    -0.06000
C138        C  0.44306096  0.12317334  0.48540920     0.93100
O139        O  0.44159209  0.19656278  0.59484171    -0.82300
C140        C  0.43174663  0.20503046  0.62857297     0.93200
O141        O  0.39354237  0.24111182  0.35336339    -0.82300
Mg142      Mg  0.30560390  0.27184874  0.46606485     1.58200
O143        O  0.44119227  0.14528638  0.51588500    -0.80600
O144        O  0.29882043  0.34653418  0.54723395    -0.82300
O145        O  0.18011489  0.72956721  0.47588915    -0.87900
C146        C  0.10360234  0.70243772  0.43331005     0.88200
Mg147      Mg  0.19235791  0.71738804  0.53532108     1.58100
O148        O  0.11556333  0.80386414  0.45160251    -0.87600
O149        O  0.17834926  0.77966140  0.43511985    -0.74900
C150        C  0.08635883  0.78659953  0.64553382     0.93200
O151        O  0.13909826  0.65976871  0.49998852    -0.74700
O152        O  0.10657783  0.76181993  0.64782249    -0.82200
Mg153      Mg  0.16115111  0.68160227  0.44357988     1.58000
C154        C  0.05749230  0.87272801  0.50865670     0.93100
O155        O  0.18375905  0.69783126  0.38517776    -0.80500
H156        H  0.13861753  0.85277049  0.44314942    -0.05900
C157        C  0.07489472  0.74553629  0.54086754     0.88100
O158        O  0.18411709  0.78258571  0.55333114    -0.75000
O159        O  0.12673284  0.71879770  0.43090396    -0.87800
O160        O  0.05975578  0.84843160  0.47998960    -0.80600
C161        C  0.06969025  0.78375390  0.36987243     0.93300
C162        C  0.17995013  0.71847209  0.35422154     0.93100
Mg163      Mg  0.10466391  0.82335404  0.55608656     1.58000
O164        O  0.08208669  0.80667259  0.61433193    -0.80500
O165        O  0.12645036  0.84523303  0.49978421    -0.74800
O166        O  0.09509818  0.77232585  0.36633487    -0.80600
O167        O  0.19596771  0.63936659  0.45691847    -0.82300
O168        O  0.17208880  0.73198687  0.63408612    -0.80600
C169        C  0.12700133  0.83475750  0.46371488     0.87500
O170        O  0.13959736  0.78596572  0.56918422    -0.87800
O171        O  0.08606413  0.77428202  0.52463701    -0.87900
O172        O  0.08769907  0.72522152  0.56655680    -0.74900
Mg173      Mg  0.13605142  0.77426235  0.40323399     1.58000
O174        O  0.05940474  0.79460524  0.40279563    -0.82300
H175        H  0.21189471  0.76779629  0.46966084    -0.06000
O176        O  0.15016693  0.70025815  0.54887814    -0.87600
H177        H  0.12628601  0.65195724  0.55633947    -0.05900
H178        H  0.16539399  0.83260623  0.57474790    -0.06000
C179        C  0.13831581  0.66990051  0.53618239     0.87500
C180        C  0.19112746  0.75892933  0.46051273     0.88100
C181        C  0.16301907  0.80154869  0.56665783     0.88200
H182        H  0.05396163  0.73687760  0.53229228    -0.06000
O183        O  0.08239854  0.72037913  0.44742012    -0.75000
Mg184      Mg  0.13039536  0.73058558  0.59754502     1.58000
H185        H  0.10169059  0.67142337  0.42480690    -0.06000
C186        C  0.20597201  0.62970818  0.49002310     0.93100
O187        O  0.20676831  0.70735714  0.59788452    -0.82300
C188        C  0.19732510  0.71952989  0.63093755     0.93200
O189        O  0.16028151  0.74410672  0.35281770    -0.82300
Mg190      Mg  0.07358298  0.78505814  0.46522538     1.58200
O191        O  0.20408178  0.65233579  0.52020581    -0.80600
O192        O  0.06909673  0.86579422  0.54157817    -0.82300
C193        C  0.46349040  0.01431221  0.48993127    -0.11400
C194        C  0.49236901  0.01758846  0.49636714     0.11200
C195        C  0.00533409  0.05550430  0.49698078    -0.03200
C196        C  0.48836079  0.08951362  0.49384023    -0.05900
C197        C  0.45943356  0.08626332  0.48786279    -0.16700
C198        C  0.44666616  0.04825625  0.48523083     0.02200
C199        C  0.00871124  0.98047372  0.50030199     0.12200
C200        C  0.03694492  0.05982624  0.49963733     0.62800
H201        H  0.99759492  0.11898463  0.49517570     0.12200
C202        C  0.41539495  0.04368421  0.47843993     0.54900
H203        H  0.45430344  0.98481766  0.48856034     0.08000
C204        C  0.51245045  0.96167728  0.53687815    -0.05800
C205        C  0.02882681  0.92691327  0.53820996    -0.06600
C206        C  0.04049501  0.90964069  0.50400650    -0.16100
C207        C  0.03561242  0.92805731  0.46696879    -0.01700
C208        C  0.01987105  0.96340728  0.46609858    -0.09300
C209        C  0.49845165  0.97762171  0.57399540     0.65000
H210        H  0.53205775  0.91237892  0.56611570     0.10400
C211        C  0.04668790  0.91116045  0.42829906     0.63400
H212        H  0.01587086  0.97816804  0.43848342     0.07800
F213        F  0.40726981  0.00407337  0.47789589    -0.19700
F214        F  0.40816309  0.06000968  0.44269855    -0.15900
F215        F  0.40079757  0.06297074  0.50818167    -0.19400
F216        F  0.04932395  0.04147160  0.46745486    -0.22800
F217        F  0.04677631  0.04231970  0.53351821    -0.24200
F218        F  0.04511370  0.09940975  0.50008505    -0.18200
F219        F  0.03361694  0.87528749  0.42013479    -0.20700
F220        F  0.07535031  0.90564143  0.43052403    -0.21900
F221        F  0.04153316  0.93626863  0.39704002    -0.19100
F222        F  0.50541125  0.95542221  0.60666116    -0.19100
F223        F  0.46969177  0.97628058  0.56956839    -0.23000
F224        F  0.50646620  0.01659132  0.58107855    -0.24600
C225        C  0.24203689  0.44679068  0.53291951    -0.11400
C226        C  0.24942785  0.47015163  0.50058133     0.11200
C227        C  0.26856562  0.45543674  0.47220247    -0.03200
C228        C  0.27983086  0.41724201  0.47733016    -0.05900
C229        C  0.27330750  0.39425150  0.51041579    -0.16700
C230        C  0.25374583  0.40880891  0.53848859     0.02200
C231        C  0.23773921  0.51077142  0.49811426     0.12200
C232        C  0.27776025  0.48048074  0.43743879     0.62800
H233        H  0.29484424  0.40563153  0.45621899     0.12200
C234        C  0.24508453  0.38449770  0.57388783     0.54900
H235        H  0.22744794  0.45904970  0.55426500     0.08000
C236        C  0.21135471  0.51813843  0.48093083    -0.05800
C237        C  0.20209113  0.55769888  0.47857866    -0.06600
C238        C  0.21804539  0.58952377  0.49360297    -0.16100
C239        C  0.24438393  0.58208607  0.51105210    -0.01700
C240        C  0.25374575  0.54244382  0.51319940    -0.09300
C241        C  0.19278579  0.48438925  0.46615796     0.65000
H242        H  0.18185729  0.56409494  0.46572802     0.10400
C243        C  0.26292700  0.61576792  0.52579765     0.63400
H244        H  0.27380433  0.53574145  0.52641758     0.07800
F245        F  0.22245499  0.40137713  0.59338276    -0.19700
F246        F  0.26712334  0.38232435  0.60006501    -0.15900
F247        F  0.23749327  0.34644740  0.56205999    -0.19400
F248        F  0.29185306  0.51390686  0.45082090    -0.22800
F249        F  0.25477885  0.49238497  0.41590240    -0.24200
F250        F  0.29548004  0.45958657  0.41242152    -0.18200
F251        F  0.25062681  0.63428074  0.55794495    -0.20700
F252        F  0.26676186  0.64330896  0.49625321    -0.21900
F253        F  0.28904295  0.60214765  0.53711705    -0.19100
F254        F  0.16894562  0.49853272  0.44783141    -0.19100
F255        F  0.18454522  0.46120152  0.49748654    -0.23000
F256        F  0.20708496  0.46075977  0.43936166    -0.24600
C257        C  0.49461131  0.82724483  0.78914118    -0.11400
C258        C  0.50404151  0.79164131  0.77168333     0.11200
C259        C  0.49442962  0.75463264  0.78628948    -0.03200
C260        C  0.47492242  0.75461932  0.81746148    -0.07900
C261        C  0.46584007  0.79019816  0.83532784    -0.16700
C262        C  0.47573997  0.82717626  0.82106570     0.02200
C263        C  0.02490212  0.79387489  0.73914914     0.12200
C264        C  0.00550255  0.71539173  0.76988000     0.62800
H265        H  0.46742120  0.72669636  0.82923627     0.12200
C266        C  0.46620898  0.86632769  0.83938125     0.54900
H267        H  0.50258225  0.85513301  0.77790429     0.08000
C268        C  0.01686524  0.79837711  0.69944038    -0.05800
C269        C  0.03768942  0.79673794  0.66999743    -0.06600
C270        C  0.06619346  0.79108394  0.67904997    -0.16100
C271        C  0.07424323  0.78939660  0.71924142    -0.01700
C272        C  0.05335760  0.79083402  0.74855600    -0.09300
C273        C  0.48642236  0.80496575  0.68840593     0.65000
H274        H  0.03169152  0.79891897  0.63940940     0.10400
C275        C  0.10460078  0.78588892  0.73149498     0.63400
H276        H  0.05900432  0.78839766  0.77927203     0.07800
F277        F  0.47602412  0.89879839  0.81866459    -0.19700
F278        F  0.47604426  0.86940559  0.87748614    -0.15900
F279        F  0.43726273  0.86801456  0.83977809    -0.19400
F280        F  0.03398576  0.71278655  0.77660008    -0.22800
F281        F  0.00067705  0.71294791  0.72988716    -0.24200
F282        F  0.99279060  0.68296203  0.78733648    -0.18200
F283        F  0.10805919  0.79232845  0.77146696    -0.20700
F284        F  0.12062777  0.81376677  0.71193134    -0.21900
F285        F  0.11405439  0.74798512  0.72270132    -0.19100
F286        F  0.48294123  0.80777142  0.64813351    -0.19100
F287        F  0.47689727  0.83999132  0.70548153    -0.23000
F288        F  0.47015274  0.77370955  0.70150612    -0.24600
C289        C  0.46328065  0.78235619  0.24940669    -0.11400
C290        C  0.49132102  0.79038513  0.24042820     0.11200
C291        C  0.49934003  0.79640736  0.20087491    -0.03200
C292        C  0.47875002  0.79383803  0.17135287    -0.05900
C293        C  0.45063159  0.78470991  0.18004033    -0.16700
C294        C  0.44262325  0.77994663  0.22002295     0.02200
C295        C  0.01200911  0.79008085  0.27302058     0.12200
C296        C  0.02967680  0.80419068  0.18982356     0.62800
H297        H  0.48477522  0.79743544  0.14088313     0.12200
C298        C  0.41247555  0.77305706  0.23208192     0.54900
H299        H  0.45778548  0.77728412  0.27986701     0.08000
C300        C  0.01514397  0.82262188  0.29945538    -0.05800
C301        C  0.03497055  0.81965785  0.32981355    -0.06600
C302        C  0.05119613  0.78517990  0.33496250    -0.16100
C303        C  0.04751457  0.75225115  0.30905606    -0.01700
C304        C  0.02792639  0.75542285  0.27835991    -0.09300
C305        C  0.49747486  0.86009721  0.29593035     0.65000
H306        H  0.03782293  0.84429022  0.35016207     0.10400
C307        C  0.06326719  0.71342668  0.31463680     0.63400
H308        H  0.02458497  0.73059061  0.25834141     0.07800
F309        F  0.40878205  0.77682293  0.27234580    -0.19700
F310        F  0.40444270  0.73498126  0.22112803    -0.15900
F311        F  0.39543481  0.80089111  0.21426503    -0.19400
F312        F  0.04554307  0.77059102  0.19702558    -0.22800
F313        F  0.04013740  0.83572687  0.21173844    -0.24200
F314        F  0.03252429  0.81349880  0.15045329    -0.18200
F315        F  0.05434672  0.68405826  0.28867755    -0.20700
F316        F  0.05914710  0.69971359  0.35243471    -0.21900
F317        F  0.09151312  0.71945926  0.30834401    -0.19100
F318        F  0.50473720  0.88862478  0.32378419    -0.19100
F319        F  0.46952148  0.85095015  0.30132277    -0.23000
F320        F  0.50102958  0.87650184  0.25914103    -0.24600
C321        C  0.28569035  0.68319839  0.77735023    -0.11400
C322        C  0.27824801  0.71948960  0.76005218     0.11200
C323        C  0.29014543  0.75536975  0.77451694    -0.03200
C324        C  0.31002027  0.75344568  0.80497236    -0.05900
C325        C  0.31763138  0.71717210  0.82240516    -0.16700
C326        C  0.30519852  0.68125968  0.80840550     0.02200
C327        C  0.25774808  0.71895656  0.72696832     0.12200
C328        C  0.28140633  0.79562183  0.75851848     0.62800
H329        H  0.31919173  0.78070547  0.81636439     0.12200
C330        C  0.31270865  0.64096199  0.82540712     0.54900
H331        H  0.27585850  0.65625445  0.76631925     0.08000
C332        C  0.26571664  0.70877832  0.68812056    -0.05800
C333        C  0.24526420  0.70906065  0.65834514    -0.06600
C334        C  0.21703100  0.71950885  0.66568179    -0.16100
C335        C  0.20925709  0.72973927  0.70508727    -0.01700
C336        C  0.22977322  0.72865610  0.73493370    -0.09300
C337        C  0.29584134  0.69802983  0.67806900     0.65000
H338        H  0.25153474  0.70124664  0.62869015     0.10400
C339        C  0.17963465  0.74148111  0.71628553     0.63400
H340        H  0.22421907  0.73569222  0.76509057     0.07800
F341        F  0.30160711  0.60987320  0.80337798    -0.19700
F342        F  0.30224338  0.63809845  0.86320439    -0.15900
F343        F  0.34149623  0.63633936  0.82601550    -0.19400
F344        F  0.25354474  0.80256800  0.76730990    -0.22800
F345        F  0.28501230  0.79633835  0.71820224    -0.24200
F346        F  0.29696953  0.82645992  0.77470535    -0.18200
F347        F  0.17693720  0.74974580  0.75608946    -0.20700
F348        F  0.16167618  0.71044347  0.70716721    -0.21900
F349        F  0.17195980  0.77543613  0.69625111    -0.19100
F350        F  0.29947007  0.69091074  0.63821797    -0.19100
F351        F  0.30360686  0.66397821  0.69781671    -0.23000
F352        F  0.31344387  0.72891771  0.68891617    -0.24600
C353        C  0.21551881  0.72276641  0.25219108    -0.11400
C354        C  0.24077636  0.70304180  0.25956026     0.11200
C355        C  0.24572699  0.68733019  0.29734855    -0.03200
C356        C  0.22509804  0.69238406  0.32675574    -0.05900
C357        C  0.19971339  0.71283966  0.31991925    -0.16700
C358        C  0.19465781  0.72760773  0.28130693     0.02200
C359        C  0.26234905  0.70208419  0.22770862     0.12200
C360        C  0.27289082  0.66578635  0.30668648     0.62800
H361        H  0.22912697  0.68100857  0.35586176     0.12200
C362        C  0.16752013  0.74812617  0.27001840     0.54900
H363        H  0.21251261  0.73504154  0.22316859     0.08000
C364        C  0.26132842  0.67461129  0.19590305    -0.05800
C365        C  0.28194763  0.67683564  0.16625831    -0.06600
C366        C  0.30287320  0.70646659  0.16644582    -0.16100
C367        C  0.30329300  0.73462434  0.19799579    -0.01700
C368        C  0.28313400  0.73157327  0.22819552    -0.09300
C369        C  0.23800359  0.64399135  0.19252752     0.65000
H370        H  0.28141643  0.65579971  0.14193683     0.10400
C371        C  0.32421707  0.76855687  0.19948465     0.63400
H372        H  0.28304283  0.75281863  0.25236875     0.07800
F373        F  0.16604487  0.75522711  0.23002733    -0.19700
F374        F  0.16540984  0.78446515  0.28931120    -0.15900
F375        F  0.14504043  0.72421276  0.27972995    -0.19400
F376        F  0.29526663  0.69157915  0.30283481    -0.22800
F377        F  0.27654272  0.63391833  0.28115078    -0.24200
F378        F  0.27306438  0.65125139  0.34464834    -0.18200
F379        F  0.31913556  0.79450603  0.23058862    -0.20700
F380        F  0.32296834  0.79020395  0.16511440    -0.21900
F381        F  0.35074923  0.75314601  0.20411563    -0.19100
F382        F  0.24173295  0.61884325  0.16042613    -0.19100
F383        F  0.21260164  0.66318535  0.18816421    -0.23000
F384        F  0.23705341  0.62087100  0.22589506    -0.24600
C385        C  0.49520524  0.18779776  0.69545948    -0.11400
C386        C  0.48806610  0.21109945  0.72830788     0.11200
C387        C  0.46166324  0.23029168  0.72960759    -0.03200
C388        C  0.44360546  0.22652701  0.69701541    -0.05900
C389        C  0.45095658  0.20399860  0.66337938    -0.16700
C390        C  0.47686216  0.18266509  0.66344608     0.02200
C391        C  0.00924206  0.21599494  0.76016477     0.12200
C392        C  0.45281591  0.25527030  0.76499161     0.62800
H393        H  0.42385885  0.24238234  0.69719326     0.12200
C394        C  0.48542317  0.15397278  0.63061632     0.54900
H395        H  0.01565919  0.17382891  0.69496184     0.08000
C396        C  0.01511923  0.18548982  0.78739658    -0.05800
C397        C  0.03555949  0.19249834  0.81643774    -0.06600
C398        C  0.04988882  0.22911152  0.81980147    -0.16100
C399        C  0.04388635  0.25963680  0.79225938    -0.01700
C400        C  0.02411457  0.25196310  0.76238152    -0.09300
C401        C  0.99928461  0.14616651  0.78661730     0.65000
H402        H  0.04023525  0.16927784  0.83730155     0.10400
C403        C  0.05720386  0.30069578  0.79488765     0.63400
H404        H  0.51969402  0.27439083  0.74056621     0.07800
F405        F  0.96349703  0.12850107  0.62173714    -0.19700
F406        F  0.50803385  0.13060457  0.64128730    -0.15900
F407        F  0.49303924  0.17501265  0.59750830    -0.19400
F408        F  0.46932972  0.28899321  0.76766307    -0.22800
F409        F  0.45568408  0.23344318  0.79902352    -0.24200
F410        F  0.42515570  0.26731249  0.76236386    -0.18200
F411        F  0.08556867  0.29794192  0.78706130    -0.20700
F412        F  0.05309060  0.31672060  0.83208642    -0.21900
F413        F  0.54567684  0.32683557  0.76812405    -0.19100
F414        F  0.00763271  0.12121628  0.81657648    -0.19100
F415        F  0.00388869  0.12634109  0.75142001    -0.23000
F416        F  0.97092394  0.15324554  0.79097366    -0.24600
C417        C  0.48283944  0.20790208  0.29688963    -0.11400
C418        C  0.47440950  0.22181535  0.26015289     0.11200
C419        C  0.44607451  0.23236135  0.25402605    -0.03200
C420        C  0.42716203  0.22979722  0.28574127    -0.05900
C421        C  0.43553456  0.21649954  0.32308183    -0.16700
C422        C  0.46409039  0.20522220  0.32876184     0.02200
C423        C  0.99563900  0.22298322  0.22813680     0.12200
C424        C  0.43586112  0.24593824  0.21404646     0.62800
H425        H  0.40547380  0.23805083  0.28143022     0.12200
C426        C  0.47536198  0.19127924  0.36814012     0.54900
H427        H  0.00452780  0.19914581  0.30027964     0.08000
C428        C  0.01445081  0.25526683  0.22363054    -0.05800
C429        C  0.03332212  0.25460816  0.19167247    -0.06600
C430        C  0.03435423  0.22230003  0.16512810    -0.16100
C431        C  0.01705169  0.18855090  0.17176928    -0.01700
C432        C  0.99772332  0.18980697  0.20302841    -0.09300
C433        C  0.01476904  0.28987684  0.25273898     0.65000
H434        H  0.04716312  0.27965160  0.18679552     0.10400
C435        C  0.01976111  0.15061667  0.14724209     0.63400
H436        H  0.48389222  0.16480655  0.20816926     0.07800
F437        F  0.96970569  0.21950155  0.39698460    -0.19700
F438        F  0.50408353  0.18559570  0.36727700    -0.15900
F439        F  0.46321628  0.15530178  0.37795995    -0.19400
F440        F  0.43953798  0.21567179  0.18667418    -0.22800
F441        F  0.45077864  0.27902257  0.20220911    -0.24200
F442        F  0.40772811  0.25595488  0.21469127    -0.18200
F443        F  0.00427169  0.11966500  0.16289189    -0.20700
F444        F  0.04750239  0.13874833  0.14602210    -0.21900
F445        F  0.51031791  0.15694939  0.10944726    -0.19100
F446        F  0.03403554  0.31873423  0.24226720    -0.19100
F447        F  0.02186520  0.27619038  0.28961130    -0.23000
F448        F  0.98865550  0.30756246  0.25467279    -0.24600
C449        C  0.27855122  0.24625863  0.74185855    -0.11400
C450        C  0.25702740  0.27430024  0.73816032     0.11200
C451        C  0.25626589  0.29933946  0.70510350    -0.03200
C452        C  0.27712804  0.29495815  0.67621097    -0.05900
C453        C  0.29879421  0.26644474  0.67912308    -0.16700
C454        C  0.29940890  0.24132924  0.71280701     0.02200
C455        C  0.23672585  0.27882900  0.77094671     0.12200
C456        C  0.23354300  0.33075357  0.70053740     0.62800
H457        H  0.27652549  0.31424981  0.65093376     0.12200
C458        C  0.32146969  0.20919444  0.71861177     0.54900
H459        H  0.27880477  0.22821282  0.76808515     0.08000
C460        C  0.21313880  0.25372995  0.77511348    -0.05800
C461        C  0.19497416  0.26026949  0.80717855    -0.06600
C462        C  0.20014379  0.29020271  0.83551837    -0.16100
C463        C  0.22395692  0.31534039  0.83108359    -0.01700
C464        C  0.24188357  0.30882248  0.79885519    -0.09300
C465        C  0.20756520  0.21971772  0.74634975     0.65000
H466        H  0.17701207  0.24100926  0.81107822     0.10400
C467        C  0.23055488  0.34931932  0.85955035     0.63400
H468        H  0.26041049  0.32705177  0.79517824     0.07800
F469        F  0.32068332  0.18223890  0.68760083    -0.19700
F470        F  0.31712874  0.18798983  0.75282133    -0.15900
F471        F  0.34774685  0.22638557  0.72106828    -0.19400
F472        F  0.23534714  0.35853107  0.73067606    -0.22800
F473        F  0.20742106  0.31308997  0.70156365    -0.24200
F474        F  0.23590013  0.35079968  0.66534606    -0.18200
F475        F  0.23966248  0.33424048  0.89499931    -0.20700
F476        F  0.20694255  0.37250250  0.86561063    -0.21900
F477        F  0.25145403  0.37390875  0.84530277    -0.19100
F478        F  0.18333668  0.19916919  0.75565496    -0.19100
F479        F  0.22959831  0.19301213  0.74696266    -0.23000
F480        F  0.20470908  0.23426288  0.70870735    -0.24600
C481        C  0.24917688  0.31494410  0.29580558    -0.11400
C482        C  0.24668176  0.28148854  0.27107317     0.11200
C483        C  0.26392408  0.24776573  0.27747349    -0.03200
C484        C  0.28235448  0.24815961  0.30976312    -0.05900
C485        C  0.28375790  0.28079545  0.33578803    -0.16700
C486        C  0.26719479  0.31512433  0.32852445     0.02200
C487        C  0.22559512  0.28259647  0.23889782     0.12200
C488        C  0.26270674  0.21141213  0.25055345     0.62800
H489        H  0.29542001  0.22248118  0.31551718     0.12200
C490        C  0.26887643  0.35213675  0.35457649     0.54900
H491        H  0.23633807  0.34074532  0.28963221     0.08000
C492        C  0.19656321  0.27774098  0.24613527    -0.05800
C493        C  0.17787588  0.27888365  0.21417806    -0.06600
C494        C  0.18731376  0.28371814  0.17535905    -0.16100
C495        C  0.21661657  0.28708939  0.16811850    -0.01700
C496        C  0.23507279  0.28789701  0.20033515    -0.09300
C497        C  0.18542411  0.27060546  0.28733767     0.65000
H498        H  0.15559322  0.27584985  0.21931074     0.10400
C499        C  0.22878837  0.28721385  0.12675065     0.63400
H500        H  0.25732917  0.29188693  0.19563474     0.07800
F501        F  0.25820672  0.34414074  0.39147404    -0.19700
F502        F  0.25366946  0.38351999  0.33930370    -0.15900
F503        F  0.29646152  0.36424161  0.35800546    -0.19400
F504        F  0.27276818  0.22109403  0.21373809    -0.22800
F505        F  0.23540267  0.19811670  0.24715152    -0.24200
F506        F  0.27874385  0.18032278  0.26469628    -0.18200
F507        F  0.25769000  0.28375793  0.12695442    -0.20700
F508        F  0.22212347  0.32237263  0.10810385    -0.21900
F509        F  0.21828190  0.25523714  0.10548001    -0.19100
F510        F  0.15688915  0.26328245  0.28735257    -0.19100
F511        F  0.19027645  0.30369139  0.31083455    -0.23000
F512        F  0.19863650  0.23794009  0.30345266    -0.24600
C513        C  0.00463459  0.95933075  0.99310260    -0.11400
C514        C  0.48682661  0.99148032  0.00177292     0.11200
C515        C  0.45875367  0.98460076  0.01304168    -0.03200
C516        C  0.44966696  0.94505593  0.01677352    -0.05900
C517        C  0.46756067  0.91282943  0.00863206    -0.16700
C518        C  0.49547152  0.91974668  0.99653421     0.02200
C519        C  0.99848568  0.03208941  0.99932984     0.12200
C520        C  0.43851622  0.01881568  0.02060277     0.62800
H521        H  0.42827062  0.93888493  0.02545687     0.12200
C522        C  0.01563415  0.88562101  0.98865633     0.54900
H523        H  0.02592954  0.96563516  0.98404736     0.08000
C524        C  0.01430746  0.04877744  0.03044365    -0.05800
C525        C  0.02590350  0.08677094  0.02551173    -0.06600
C526        C  0.02282959  0.10777234  0.99023271    -0.16100
C527        C  0.00639335  0.09129483  0.95935536    -0.01700
C528        C  0.49452273  0.05338795  0.96456660    -0.09300
C529        C  0.01972018  0.02597208  0.06810350     0.65000
H530        H  0.03861405  0.09964613  0.04871222     0.10400
C531        C  0.50116961  0.11336526  0.92125245     0.63400
H532        H  0.48248981  0.03957809  0.94115835     0.07800
F533        F  0.04256636  0.89910961  0.98159646    -0.19700
F534        F  0.00698510  0.86400531  0.95609225    -0.15900
F535        F  0.51647262  0.86087295  0.02095776    -0.19400
F536        F  0.43504186  0.04043257  0.98656508    -0.22800
F537        F  0.44878750  0.04374021  0.04975698    -0.24200
F538        F  0.41244368  0.00537111  0.03242494    -0.18200
F539        F  0.52538803  0.11390501  0.89892343    -0.20700
F540        F  0.99272913  0.15205032  0.92933753    -0.21900
F541        F  0.48040260  0.09532527  0.89900267    -0.19100
F542        F  0.03413373  0.04877722  0.09549977    -0.19100
F543        F  0.03554117  0.99242263  0.05980464    -0.23000
F544        F  0.99468253  0.01444181  0.08495984    -0.24600
C545        C  0.28848043  0.52165092  0.01892261    -0.11400
C546        C  0.26506013  0.51621614  0.99467926     0.11200
C547        C  0.25713780  0.54644648  0.96813572    -0.03200
C548        C  0.27355104  0.58115546  0.96618020    -0.05900
C549        C  0.29676012  0.58679680  0.99078117    -0.16700
C550        C  0.30470055  0.55654295  0.01731102     0.02200
C551        C  0.24830526  0.47942741  0.99949049     0.12200
C552        C  0.23106741  0.54250865  0.94286045     0.62800
H553        H  0.26792262  0.60478560  0.94619887     0.12200
C554        C  0.33060787  0.56060185  0.04290734     0.54900
H555        H  0.29379670  0.49830737  0.03938799     0.08000
C556        C  0.25551717  0.44312049  0.98060520    -0.05800
C557        C  0.23804458  0.40986004  0.98601540    -0.06600
C558        C  0.21430387  0.41158147  0.01055399    -0.16100
C559        C  0.20785402  0.44776699  0.03073676    -0.01700
C560        C  0.22511663  0.48109734  0.02468889    -0.09300
C561        C  0.28155994  0.43957329  0.95503400     0.65000
H562        H  0.24292883  0.38199018  0.97121340     0.10400
C563        C  0.18264791  0.45185038  0.05785264     0.63400
H564        H  0.22065710  0.50907144  0.03958433     0.07800
F565        F  0.33624548  0.52589462  0.06311418    -0.19700
F566        F  0.32686678  0.59090606  0.07023206    -0.15900
F567        F  0.35361804  0.56910365  0.01967285    -0.19400
F568        F  0.20760598  0.54063990  0.96663699    -0.22800
F569        F  0.23251976  0.50828640  0.92004148    -0.24200
F570        F  0.22791533  0.57459410  0.91795505    -0.18200
F571        F  0.18657311  0.42884892  0.09091543    -0.20700
F572        F  0.15863734  0.43967665  0.03846790    -0.21900
F573        F  0.17859520  0.49085047  0.07027137    -0.19100
F574        F  0.28492871  0.40138379  0.93999088    -0.19100
F575        F  0.30507722  0.44876795  0.97694438    -0.23000
F576        F  0.27981902  0.46550085  0.92382061    -0.24600
O577        O  0.66419413  0.27851056  0.02337441    -0.87900
C578        C  0.58891249  0.30951667  0.06901127     0.88200
Mg579      Mg  0.67712348  0.29172723  0.96488555     1.58100
O580        O  0.59754913  0.20825646  0.04666457    -0.87600
O581        O  0.66084899  0.22721298  0.06244716    -0.74900
C582        C  0.56923138  0.23443635  0.85406297     0.93200
O583        O  0.62622491  0.35319708  0.00288826    -0.74700
O584        O  0.58984214  0.25850303  0.85242020    -0.82200
Mg585      Mg  0.64759868  0.32677831  0.05758378     1.58000
C586        C  0.53838691  0.14563125  0.98672307     0.93100
O587        O  0.66992403  0.30480020  0.11322547    -0.80500
H588        H  0.61907254  0.15761684  0.05292912    -0.05900
C589        C  0.55878921  0.27340800  0.96063816     0.88100
O590        O  0.66648552  0.22825706  0.94460044    -0.75000
O591        O  0.61157203  0.29169249  0.06999464    -0.87800
O592        O  0.54125973  0.16755825  0.01719190    -0.80600
C593        C  0.55279938  0.22535842  0.13007655     0.93300
C594        C  0.66617805  0.28294837  0.14320286     0.93100
Mg595      Mg  0.58626345  0.19442301  0.94189963     1.58000
O596        O  0.56460108  0.21388199  0.88477507    -0.80500
O597        O  0.60732997  0.16852902  0.99677016    -0.74800
O598        O  0.57830555  0.23641298  0.13401862    -0.80600
O599        O  0.68473457  0.36651044  0.04513287    -0.82300
O600        O  0.65551088  0.28229996  0.86671014    -0.80600
C601        C  0.60806776  0.17725122  0.03322400     0.87500
O602        O  0.62190537  0.22982743  0.93011635    -0.87800
O603        O  0.56892110  0.24311289  0.97542558    -0.87900
O604        O  0.57218813  0.29380867  0.93551984    -0.74900
Mg605      Mg  0.61906567  0.23428491  0.09555826     1.58000
O606        O  0.54223613  0.21774744  0.09658081    -0.82300
H607        H  0.69451079  0.23768437  0.02753138    -0.06000
O608        O  0.63572264  0.31369336  0.95252818    -0.87600
H609        H  0.61395308  0.36424360  0.94693060    -0.05900
H610        H  0.64541114  0.18125627  0.92117975    -0.06000
C611        C  0.62516293  0.34455901  0.96635939     0.87500
C612        C  0.67418192  0.24780419  0.03746016     0.88100
C613        C  0.64453941  0.21200066  0.93092942     0.88200
H614        H  0.53827817  0.28332342  0.97001638    -0.06000
O615        O  0.56697562  0.29333089  0.05512452    -0.75000
Mg616      Mg  0.61446563  0.28642654  0.90350753     1.58000
H617        H  0.58801365  0.34024579  0.07880912    -0.06000
C618        C  0.69633359  0.37552904  0.01280893     0.93100
O619        O  0.69147935  0.30252900  0.90322774    -0.82300
C620        C  0.68121580  0.29238234  0.87025109     0.93200
O621        O  0.64481965  0.26030081  0.14616625    -0.82300
Mg622      Mg  0.55624661  0.22993799  0.03449413     1.58200
O623        O  0.69310077  0.35416752  0.98198263    -0.80600
O624        O  0.54976248  0.15432225  0.95420220    -0.82300
O625        O  0.93172032  0.77154180  0.02502434    -0.87900
C626        C  0.85427203  0.79376733  0.06979193     0.88200
Mg627      Mg  0.94381798  0.78550142  0.96586696     1.58100
O628        O  0.86847727  0.69340468  0.04809426    -0.87600
O629        O  0.93069921  0.72040092  0.06467802    -0.74900
C630        C  0.83795136  0.71899590  0.85565480     0.93200
O631        O  0.88902509  0.84070852  0.00321202    -0.74700
O632        O  0.85797654  0.74407989  0.85402666    -0.82200
Mg633      Mg  0.91149447  0.81802017  0.05844430     1.58000
C634        C  0.81216484  0.62469165  0.98806091     0.93100
O635        O  0.93456507  0.80100217  0.11578329    -0.80500
H636        H  0.89263886  0.64512818  0.05389875    -0.05900
C637        C  0.82689154  0.75463513  0.96237873     0.88100
O638        O  0.93637256  0.72073203  0.94602119    -0.75000
O639        O  0.87783954  0.77854402  0.07056491    -0.87800
O640        O  0.81437132  0.64652951  0.01867825    -0.80600
C641        C  0.82180775  0.70875588  0.13129797     0.93300
C642        C  0.93089899  0.77967569  0.14629242     0.93100
Mg643      Mg  0.85740156  0.67837935  0.94270265     1.58000
O644        O  0.83418948  0.69725531  0.88580580    -0.80500
O645        O  0.87982452  0.65467457  0.99789322    -0.74800
O646        O  0.84698329  0.72142025  0.13454986    -0.80600
O647        O  0.94518669  0.86296582  0.04542071    -0.82300
O648        O  0.92269935  0.77383538  0.86702646    -0.80600
C649        C  0.88051116  0.66359794  0.03438572     0.87500
O650        O  0.89179998  0.71703855  0.93088185    -0.87800
O651        O  0.83822926  0.72505477  0.97684843    -0.87900
O652        O  0.83935943  0.77625121  0.93732224    -0.74900
Mg653      Mg  0.88825228  0.72283931  0.09702175     1.58000
O654        O  0.81195290  0.69784370  0.09813965    -0.82300
H655        H  0.96412606  0.73425165  0.03045930    -0.06000
O656        O  0.90142581  0.80209884  0.95351508    -0.87600
H657        H  0.87688928  0.84983487  0.94688703    -0.05900
H658        H  0.91801602  0.67110597  0.92326759    -0.06000
C659        C  0.88899592  0.83174756  0.96676937     0.87500
C660        C  0.94318015  0.74218354  0.03976109     0.88100
C661        C  0.91538886  0.70182938  0.93243415     0.88200
H662        H  0.80606610  0.76285373  0.97197067    -0.06000
O663        O  0.83324212  0.77509159  0.05620117    -0.75000
Mg664      Mg  0.88167519  0.77314148  0.90475321     1.58000
H665        H  0.85171897  0.82432049  0.07955024    -0.06000
C666        C  0.95575885  0.87263811  0.01255678     0.93100
O667        O  0.95764506  0.79824165  0.90350292    -0.82300
C668        C  0.94757387  0.78753967  0.87047071     0.93200
O669        O  0.91163957  0.75339197  0.14770499    -0.82300
Mg670      Mg  0.82604327  0.71058699  0.03584847     1.58200
O671        O  0.95480030  0.84988797  0.98246275    -0.80600
O672        O  0.82242087  0.63475100  0.95511162    -0.82300
O673        O  0.91328847  0.22122041  0.47519175    -0.87900
C674        C  0.83731132  0.19228450  0.43042822     0.88200
Mg675      Mg  0.92661137  0.20794668  0.53340081     1.58100
O676        O  0.84703352  0.29312935  0.45382997    -0.87600
O677        O  0.91021613  0.27304914  0.43678601    -0.74900
C678        C  0.81914627  0.26370226  0.64549729     0.93200
O679        O  0.87421728  0.14777646  0.49638530    -0.74700
O680        O  0.84051572  0.24110913  0.64716018    -0.82200
Mg681      Mg  0.89538542  0.17348814  0.44128955     1.58000
C682        C  0.78820424  0.35592721  0.51438334     0.93100
O683        O  0.91747277  0.19471845  0.38509761    -0.80500
H684        H  0.86816140  0.34409317  0.44736567    -0.05900
C685        C  0.80870023  0.22738564  0.53935077     0.88100
O686        O  0.91648710  0.27163088  0.55388375    -0.75000
O687        O  0.86007686  0.20980878  0.42971029    -0.87800
O688        O  0.79139927  0.33432327  0.48378296    -0.80600
C689        C  0.80199184  0.27738624  0.37083189     0.93300
C690        C  0.91430547  0.21724942  0.35551081     0.93100
Mg691      Mg  0.83588316  0.30609042  0.55853577     1.58000
O692        O  0.81437250  0.28449656  0.61499803    -0.80500
O693        O  0.85664294  0.33296812  0.50366899    -0.74800
O694        O  0.82744018  0.26614761  0.36670052    -0.80600
O695        O  0.93139087  0.13191141  0.45311728    -0.82300
O696        O  0.90614738  0.21567954  0.63289090    -0.80600
C697        C  0.85738618  0.32426634  0.46718167     0.87500
O698        O  0.87200796  0.27062626  0.56950146    -0.87800
O699        O  0.81862804  0.25786552  0.52463468    -0.87900
O700        O  0.82226680  0.20699810  0.56424788    -0.74900
Mg701      Mg  0.86821306  0.26718560  0.40448740     1.58000
O702        O  0.79140652  0.28484597  0.40439098    -0.82300
H703        H  0.94413356  0.26116831  0.47053409    -0.06000
O704        O  0.88528500  0.18660397  0.54655046    -0.87600
H705        H  0.86291260  0.13669401  0.55276456    -0.05900
H706        H  0.89582668  0.31902549  0.57745163    -0.06000
C707        C  0.87406733  0.15613540  0.53298667     0.87500
C708        C  0.92356011  0.25174215  0.46107672     0.88100
C709        C  0.89472013  0.28822337  0.56794096     0.88200
H710        H  0.78819017  0.21736882  0.53021012    -0.06000
O711        O  0.81549885  0.20851155  0.44472380    -0.75000
Mg712      Mg  0.86472796  0.21365390  0.59589502     1.58000
H713        H  0.83623047  0.16173506  0.42012693    -0.06000
C714        C  0.94306345  0.12317505  0.48541031     0.93100
O715        O  0.94159278  0.19656784  0.59484096    -0.82300
C716        C  0.93174737  0.20503564  0.62857216     0.93200
O717        O  0.89354317  0.24110960  0.35336261    -0.82300
Mg718      Mg  0.80560393  0.27184596  0.46606257     1.58200
O719        O  0.94119473  0.14528869  0.51588577    -0.80600
O720        O  0.79881714  0.34653138  0.54723074    -0.82300
O721        O  0.68011699  0.72956463  0.47588816    -0.87900
C722        C  0.60360297  0.70243989  0.43330938     0.88200
Mg723      Mg  0.69235829  0.71738240  0.53532089     1.58100
O724        O  0.61556603  0.80386567  0.45160240    -0.87600
O725        O  0.67835161  0.77965962  0.43511963    -0.74900
C726        C  0.58636244  0.78660009  0.64553325     0.93200
O727        O  0.63909828  0.65976678  0.49998530    -0.74700
O728        O  0.60658013  0.76181840  0.64781843    -0.82200
Mg729      Mg  0.66115151  0.68160148  0.44357749     1.58000
C730        C  0.55749493  0.87273133  0.50865765     0.93100
O731        O  0.68375919  0.69783037  0.38517516    -0.80500
H732        H  0.63862042  0.85277174  0.44314886    -0.05900
C733        C  0.57489536  0.74553940  0.54086583     0.88100
O734        O  0.68411963  0.78258063  0.55333231    -0.75000
O735        O  0.62673382  0.71879883  0.43090304    -0.87800
O736        O  0.55975856  0.84843473  0.47999080    -0.80600
C737        C  0.56969207  0.78375880  0.36987296     0.93300
C738        C  0.67995035  0.71847126  0.35421895     0.93100
Mg739      Mg  0.60466673  0.82335598  0.55608624     1.58000
O740        O  0.58208987  0.80667530  0.61433277    -0.80500
O741        O  0.62645315  0.84523478  0.49978371    -0.74800
O742        O  0.59509970  0.77232947  0.36633463    -0.80600
O743        O  0.69596740  0.63936413  0.45691471    -0.82300
O744        O  0.67208720  0.73198504  0.63408298    -0.80600
C745        C  0.62700418  0.83475899  0.46371446     0.87500
O746        O  0.63959937  0.78596494  0.56918188    -0.87800
O747        O  0.58606570  0.77428498  0.52463640    -0.87900
O748        O  0.58769931  0.72522241  0.56655359    -0.74900
Mg749      Mg  0.63605343  0.77426330  0.40323333     1.58000
O750        O  0.55940716  0.79461000  0.40279648    -0.82300
H751        H  0.71189692  0.76779373  0.46966072    -0.06000
O752        O  0.65016638  0.70025674  0.54887438    -0.87600
H753        H  0.62628571  0.65195563  0.55633618    -0.05900
H754        H  0.66539798  0.83260309  0.57474729    -0.06000
C755        C  0.63831546  0.66989887  0.53617902     0.87500
C756        C  0.69112966  0.75892707  0.46051238     0.88100
C757        C  0.66302189  0.80154581  0.56665699     0.88200
H758        H  0.55396196  0.73688251  0.53229043    -0.06000
O759        O  0.58239960  0.72038226  0.44741960    -0.75000
Mg760      Mg  0.63039553  0.73058462  0.59754101     1.58000
H761        H  0.60169052  0.67142564  0.42480625    -0.06000
C762        C  0.70596998  0.62970349  0.49001974     0.93100
O763        O  0.70676610  0.70734587  0.59788614    -0.82300
C764        C  0.69732195  0.71952166  0.63093772     0.93200
O765        O  0.66028246  0.74410709  0.35281568    -0.82300
Mg766      Mg  0.57358521  0.78506153  0.46522538     1.58200
O767        O  0.70407919  0.65232982  0.52020331    -0.80600
O768        O  0.56909997  0.86579799  0.54157887    -0.82300
C769        C  0.96349327  0.01431329  0.48992390    -0.11400
C770        C  0.99237104  0.01758899  0.49636686     0.11200
C771        C  0.50533236  0.05550363  0.49697279    -0.03200
C772        C  0.98836270  0.08951463  0.49384844    -0.05900
C773        C  0.95943612  0.08626482  0.48786397    -0.16700
C774        C  0.94666929  0.04825768  0.48522449     0.02200
C775        C  0.50870981  0.98047384  0.50030257     0.12200
C776        C  0.53694361  0.05982569  0.49961982     0.62800
H777        H  0.49759327  0.11898365  0.49516152     0.12200
C778        C  0.91539872  0.04368552  0.47842761     0.54900
H779        H  0.95430668  0.98481873  0.48854712     0.08000
C780        C  0.01244526  0.96167114  0.53687591    -0.05800
C781        C  0.52883339  0.92692068  0.53821219    -0.06600
C782        C  0.54049636  0.90964317  0.50400746    -0.16100
C783        C  0.53560652  0.92805353  0.46696835    -0.01700
C784        C  0.51986421  0.96340260  0.46609811    -0.09300
C785        C  0.99844124  0.97761080  0.57399121     0.65000
H786        H  0.03204612  0.91236671  0.56611215     0.10400
C787        C  0.54667479  0.91115086  0.42829694     0.63400
H788        H  0.51585902  0.97815902  0.43848208     0.07800
F789        F  0.90727397  0.00407452  0.47787855    -0.19700
F790        F  0.90816985  0.06001402  0.44268646    -0.15900
F791        F  0.90079854  0.06296886  0.50816862    -0.19400
F792        F  0.54931776  0.04146864  0.46743497    -0.22800
F793        F  0.54678019  0.04232172  0.53349906    -0.24200
F794        F  0.54511241  0.09940921  0.50006218    -0.18200
F795        F  0.53360402  0.87527508  0.42014447    -0.20700
F796        F  0.57533802  0.90563562  0.43051102    -0.21900
F797        F  0.54151198  0.93625251  0.39703539    -0.19100
F798        F  0.00539507  0.95540588  0.60665579    -0.19100
F799        F  0.96968201  0.97627216  0.56955542    -0.23000
F800        F  0.00645603  0.01657888  0.58108243    -0.24600
C801        C  0.74202669  0.44677990  0.53290943    -0.11400
C802        C  0.74942353  0.47014592  0.50057740     0.11200
C803        C  0.76856741  0.45543630  0.47220407    -0.03200
C804        C  0.77983292  0.41724175  0.47733107    -0.05900
C805        C  0.77330394  0.39424666  0.51041123    -0.16700
C806        C  0.75373609  0.40879839  0.53847813     0.02200
C807        C  0.73773485  0.51076562  0.49811129     0.12200
C808        C  0.77776833  0.48048590  0.43744759     0.62800
H809        H  0.79485095  0.40563506  0.45622439     0.12200
C810        C  0.74506920  0.38448135  0.57387070     0.54900
H811        H  0.72743299  0.45903480  0.55425078     0.08000
C812        C  0.71135354  0.51813426  0.48091902    -0.05800
C813        C  0.70209049  0.55769500  0.47856725    -0.06600
C814        C  0.71804263  0.58951858  0.49359893    -0.16100
C815        C  0.74437850  0.58207921  0.51105527    -0.01700
C816        C  0.75373919  0.54243662  0.51320380    -0.09300
C817        C  0.69278769  0.48438646  0.46613533     0.65000
H818        H  0.68185875  0.56409224  0.46571071     0.10400
C819        C  0.76292056  0.61575971  0.52580648     0.63400
H820        H  0.77379554  0.53573298  0.52642800     0.07800
F821        F  0.72243544  0.40135609  0.59335985    -0.19700
F822        F  0.76710339  0.38230603  0.60005529    -0.15900
F823        F  0.73748170  0.34643205  0.56203472    -0.19400
F824        F  0.79185901  0.51390970  0.45083994    -0.22800
F825        F  0.75479084  0.49239389  0.41590505    -0.24200
F826        F  0.79549237  0.45959556  0.41243323    -0.18200
F827        F  0.75061779  0.63427045  0.55795296    -0.20700
F828        F  0.76675840  0.64330283  0.49626466    -0.21900
F829        F  0.78903538  0.60213814  0.53712943    -0.19100
F830        F  0.66895113  0.49853182  0.44780108    -0.19100
F831        F  0.68454100  0.46119501  0.49745808    -0.23000
F832        F  0.70709225  0.46076019  0.43934194    -0.24600
C833        C  0.99459291  0.82725182  0.78912541    -0.11400
C834        C  0.00403309  0.79164850  0.77167754     0.11200
C835        C  0.99443141  0.75463881  0.78629425    -0.03200
C836        C  0.97492315  0.75462353  0.81746479    -0.07900
C837        C  0.96583118  0.79020218  0.83532132    -0.16700
C838        C  0.97572210  0.82718155  0.82105074     0.02200
C839        C  0.52490994  0.79386659  0.73915431     0.12200
C840        C  0.50548795  0.71538409  0.76986127     0.62800
H841        H  0.96742927  0.72669989  0.82924700     0.12200
C842        C  0.96618406  0.86633194  0.83936111     0.54900
H843        H  0.00255661  0.85514122  0.77788152     0.08000
C844        C  0.51687294  0.79838864  0.69944801    -0.05800
C845        C  0.53769572  0.79675060  0.67000316    -0.06600
C846        C  0.56619899  0.79108298  0.67905192    -0.16100
C847        C  0.57424968  0.78937943  0.71924239    -0.01700
C848        C  0.55336502  0.79081094  0.74855845    -0.09300
C849        C  0.98641314  0.80493216  0.68839349     0.65000
H850        H  0.53169718  0.79894494  0.63941645     0.10400
C851        C  0.60460763  0.78586788  0.73149335     0.63400
H852        H  0.55901218  0.78836185  0.77927324     0.07800
F853        F  0.97599098  0.89880338  0.81863805    -0.19700
F854        F  0.97602145  0.86941969  0.87746431    -0.15900
F855        F  0.93723747  0.86800670  0.83976198    -0.19400
F856        F  0.53397103  0.71275992  0.77657515    -0.22800
F857        F  0.50065810  0.71295589  0.72986868    -0.24200
F858        F  0.49276813  0.68295626  0.78731003    -0.18200
F859        F  0.60806678  0.79229144  0.77146757    -0.20700
F860        F  0.62063250  0.81375588  0.71194030    -0.21900
F861        F  0.61406326  0.74796833  0.72268440    -0.19100
F862        F  0.98293279  0.80772162  0.64811969    -0.19100
F863        F  0.97687677  0.83995767  0.70545660    -0.23000
F864        F  0.97015237  0.77367060  0.70150271    -0.24600
C865        C  0.96328043  0.78235080  0.24940230    -0.11400
C866        C  0.99132148  0.79037532  0.24042405     0.11200
C867        C  0.99934126  0.79639511  0.20087057    -0.03200
C868        C  0.97875129  0.79382760  0.17134822    -0.05900
C869        C  0.95063206  0.78470454  0.18003570    -0.16700
C870        C  0.94262303  0.77994402  0.22001835     0.02200
C871        C  0.51200924  0.79008984  0.27302377     0.12200
C872        C  0.52967515  0.80420567  0.18982762     0.62800
H873        H  0.98477686  0.79742319  0.14087841     0.12200
C874        C  0.91247453  0.77306062  0.23207717     0.54900
H875        H  0.95778454  0.77728051  0.27986264     0.08000
C876        C  0.51514501  0.82263021  0.29945910    -0.05800
C877        C  0.53497223  0.81966493  0.32981631    -0.06600
C878        C  0.55119736  0.78518626  0.33496385    -0.16100
C879        C  0.54751439  0.75225795  0.30905737    -0.01700
C880        C  0.52792590  0.75543111  0.27836187    -0.09300
C881        C  0.99747307  0.86008804  0.29592567     0.65000
H882        H  0.53782574  0.84429700  0.35016489     0.10400
C883        C  0.56326585  0.71343244  0.31463733     0.63400
H884        H  0.52458374  0.73059947  0.25834291     0.07800
F885        F  0.90878093  0.77682981  0.27234075    -0.19700
F886        F  0.90443841  0.73498561  0.22112556    -0.15900
F887        F  0.89543633  0.80089636  0.21425806    -0.19400
F888        F  0.54554237  0.77060616  0.19702642    -0.22800
F889        F  0.54013540  0.83574047  0.21174470    -0.24200
F890        F  0.53252167  0.81351750  0.15045812    -0.18200
F891        F  0.55434364  0.68406464  0.28867861    -0.20700
F892        F  0.55914637  0.69971959  0.35243548    -0.21900
F893        F  0.59151179  0.71946313  0.30834290    -0.19100
F894        F  0.00473748  0.88861870  0.32377534    -0.19100
F895        F  0.96952032  0.85094067  0.30132386    -0.23000
F896        F  0.00102436  0.87648897  0.25913403    -0.24600
C897        C  0.78571601  0.68317674  0.77731889    -0.11400
C898        C  0.77823094  0.71947415  0.76006825     0.11200
C899        C  0.79008785  0.75536351  0.77457808    -0.03200
C900        C  0.80996914  0.75344524  0.80502547    -0.05900
C901        C  0.81762331  0.71716601  0.82240868    -0.16700
C902        C  0.80522931  0.68124319  0.80836825     0.02200
C903        C  0.75773386  0.71893796  0.72698089     0.12200
C904        C  0.78129879  0.79561707  0.75863620     0.62800
H905        H  0.81911194  0.78071068  0.81645092     0.12200
C906        C  0.81278947  0.64094208  0.82531887     0.54900
H907        H  0.77591515  0.65622380  0.76625421     0.08000
C908        C  0.76571802  0.70883561  0.68812071    -0.05800
C909        C  0.74526895  0.70911804  0.65834073    -0.06600
C910        C  0.71702467  0.71949830  0.66568476    -0.16100
C911        C  0.70923567  0.72965784  0.70510152    -0.01700
C912        C  0.72974816  0.72856812  0.73495253    -0.09300
C913        C  0.79585576  0.69817046  0.67806106     0.65000
H914        H  0.75155099  0.70136280  0.62867594     0.10400
C915        C  0.67960263  0.74134001  0.71630481     0.63400
H916        H  0.72418317  0.73555024  0.76511719     0.07800
F917        F  0.80171609  0.60985405  0.80326033    -0.19700
F918        F  0.80233925  0.63801003  0.86311845    -0.15900
F919        F  0.84158245  0.63638463  0.82590606    -0.19400
F920        F  0.75343021  0.80248420  0.76744395    -0.22800
F921        F  0.78489822  0.79639809  0.71832060    -0.24200
F922        F  0.79682747  0.82647040  0.77486081    -0.18200
F923        F  0.67689015  0.74953241  0.75612067    -0.20700
F924        F  0.66166424  0.71029648  0.70712493    -0.21900
F925        F  0.67191286  0.77532085  0.69632419    -0.19100
F926        F  0.79949655  0.69111701  0.63820145    -0.19100
F927        F  0.80365776  0.66410785  0.69776255    -0.23000
F928        F  0.81342210  0.72908362  0.68895531    -0.24600
C929        C  0.71551666  0.72275903  0.25218640    -0.11400
C930        C  0.74077425  0.70303442  0.25955559     0.11200
C931        C  0.74572538  0.68732430  0.29734442    -0.03200
C932        C  0.72509718  0.69238053  0.32675224    -0.05900
C933        C  0.69971277  0.71283683  0.31991596    -0.16700
C934        C  0.69465638  0.72760258  0.28130297     0.02200
C935        C  0.76234737  0.70207840  0.22770452     0.12200
C936        C  0.77288880  0.66577921  0.30668218     0.62800
H937        H  0.72912648  0.68100617  0.35585862     0.12200
C938        C  0.66751863  0.74812090  0.27001457     0.54900
H939        H  0.71251007  0.73503301  0.22316349     0.08000
C940        C  0.76132841  0.67460563  0.19589871    -0.05800
C941        C  0.78194806  0.67683199  0.16625481    -0.06600
C942        C  0.80287189  0.70646539  0.16644277    -0.16100
C943        C  0.80328955  0.73462370  0.19799215    -0.01700
C944        C  0.78313061  0.73157005  0.22819169    -0.09300
C945        C  0.73800493  0.64398376  0.19252175     0.65000
H946        H  0.78141850  0.65579587  0.14193344     0.10400
C947        C  0.82421059  0.76856015  0.19947988     0.63400
H948        H  0.78303797  0.75281551  0.25236480     0.07800
F949        F  0.66604244  0.75521930  0.23002309    -0.19700
F950        F  0.66540928  0.78446111  0.28930528    -0.15900
F951        F  0.64503892  0.72420863  0.27972880    -0.19400
F952        F  0.79526567  0.69156926  0.30282511    -0.22800
F953        F  0.77653783  0.63390774  0.28114992    -0.24200
F954        F  0.77306378  0.65124898  0.34464584    -0.18200
F955        F  0.81912629  0.79450981  0.23058254    -0.20700
F956        F  0.82296007  0.79020540  0.16510866    -0.21900
F957        F  0.85074431  0.75315487  0.20411185    -0.19100
F958        F  0.74173491  0.61883836  0.16041844    -0.19100
F959        F  0.71260197  0.66317557  0.18816064    -0.23000
F960        F  0.73705642  0.62086084  0.22588756    -0.24600
C961        C  0.99520718  0.18780589  0.69545702    -0.11400
C962        C  0.98806720  0.21110536  0.72830650     0.11200
C963        C  0.96166353  0.23029524  0.72960744    -0.03200
C964        C  0.94360569  0.22653046  0.69701535    -0.05900
C965        C  0.95095754  0.20400408  0.66337832    -0.16700
C966        C  0.97686408  0.18267282  0.66344376     0.02200
C967        C  0.50924117  0.21598947  0.76016594     0.12200
C968        C  0.95281536  0.25527135  0.76499275     0.62800
H969        H  0.92385838  0.24238405  0.69719416     0.12200
C970        C  0.98542630  0.15398256  0.63061281     0.54900
H971        H  0.51565660  0.17381890  0.69496512     0.08000
C972        C  0.51511732  0.18548578  0.78739973    -0.05800
C973        C  0.53555774  0.19249482  0.81644061    -0.06600
C974        C  0.54988823  0.22910730  0.81980221    -0.16100
C975        C  0.54388678  0.25963116  0.79225807    -0.01700
C976        C  0.52411484  0.25195677  0.76238055    -0.09300
C977        C  0.49928137  0.14616358  0.78662298     0.65000
H978        H  0.54023263  0.16927537  0.83730586     0.10400
C979        C  0.55720555  0.30068947  0.79488353     0.63400
H980        H  0.01969297  0.27439833  0.74056861     0.07800
F981        F  0.46349259  0.12849337  0.62174121    -0.19700
F982        F  0.00803827  0.13061634  0.64128260    -0.15900
F983        F  0.99304104  0.17502433  0.59750538    -0.19400
F984        F  0.96932813  0.28899516  0.76766603    -0.22800
F985        F  0.95568420  0.23344255  0.79902349    -0.24200
F986        F  0.92515477  0.26731194  0.76236561    -0.18200
F987        F  0.58557029  0.29793321  0.78705757    -0.20700
F988        F  0.55309259  0.31671728  0.83208114    -0.21900
F989        F  0.04567410  0.32684310  0.76813021    -0.19100
F990        F  0.50762903  0.12121432  0.81658320    -0.19100
F991        F  0.50388417  0.12633602  0.75142653    -0.23000
F992        F  0.47092104  0.15324496  0.79097985    -0.24600
C993        C  0.98283865  0.20789469  0.29688703    -0.11400
C994        C  0.97440806  0.22180578  0.26014980     0.11200
C995        C  0.94607292  0.23235128  0.25402328    -0.03200
C996        C  0.92716106  0.22978930  0.28573938    -0.05900
C997        C  0.93553443  0.21649466  0.32308058    -0.16700
C998        C  0.96409031  0.20521742  0.32876023     0.02200
C999        C  0.49564049  0.22299220  0.22813991     0.12200
C1000       C  0.93585879  0.24592564  0.21404325     0.62800
H1001       H  0.90547271  0.23804247  0.28142863     0.12200
C1002       C  0.97536279  0.19127786  0.36813918     0.54900
H1003       H  0.50452849  0.19915284  0.30028245     0.08000
C1004       C  0.51445278  0.25527520  0.22363325    -0.05800
C1005       C  0.53332354  0.25461597  0.19167443    -0.06600
C1006       C  0.53435470  0.22230774  0.16512999    -0.16100
C1007       C  0.51705197  0.18855908  0.17177193    -0.01700
C1008       C  0.49772406  0.18981582  0.20303154    -0.09300
C1009       C  0.51477223  0.28988487  0.25274213     0.65000
H1010       H  0.54716490  0.27965891  0.18679707     0.10400
C1011       C  0.51976084  0.15062452  0.14724511     0.63400
H1012       H  0.98389176  0.16479731  0.20816574     0.07800
F1013       F  0.46970433  0.21950040  0.39698772    -0.19700
F1014       F  0.00408433  0.18559428  0.36727528    -0.15900
F1015       F  0.96321740  0.15530124  0.37796260    -0.19400
F1016       F  0.93953543  0.21565756  0.18667268    -0.22800
F1017       F  0.95077583  0.27900956  0.20220352    -0.24200
F1018       F  0.90772571  0.25594178  0.21468836    -0.18200
F1019       F  0.50427149  0.11967327  0.16289576    -0.20700
F1020       F  0.54750203  0.13875581  0.14602446    -0.21900
F1021       F  0.01031871  0.15694195  0.10944405    -0.19100
F1022       F  0.53403938  0.31874135  0.24227020    -0.19100
F1023       F  0.52186843  0.27619756  0.28961413    -0.23000
F1024       F  0.48865921  0.30757195  0.25467687    -0.24600
C1025       C  0.77854915  0.24625559  0.74185427    -0.11400
C1026       C  0.75702526  0.27429718  0.73815681     0.11200
C1027       C  0.75626318  0.29933649  0.70510005    -0.03200
C1028       C  0.77712562  0.29495646  0.67620766    -0.05900
C1029       C  0.79879213  0.26644348  0.67911938    -0.16700
C1030       C  0.79940651  0.24132656  0.71280225     0.02200
C1031       C  0.73672426  0.27882581  0.77094391     0.12200
C1032       C  0.73353921  0.33074905  0.70053389     0.62800
H1033       H  0.77652301  0.31424872  0.65093084     0.12200
C1034       C  0.82146621  0.20918983  0.71860479     0.54900
H1035       H  0.77880295  0.22820936  0.76808060     0.08000
C1036       C  0.71313763  0.25372619  0.77511200    -0.05800
C1037       C  0.69497342  0.26026597  0.80717752    -0.06600
C1038       C  0.70014322  0.29019971  0.83551677    -0.16100
C1039       C  0.72395616  0.31533755  0.83108102    -0.01700
C1040       C  0.74188221  0.30881971  0.79885190    -0.09300
C1041       C  0.70756403  0.21971306  0.74634929     0.65000
H1042       H  0.67701155  0.24100552  0.81107801     0.10400
C1043       C  0.73055455  0.34931653  0.85954754     0.63400
H1044       H  0.76040887  0.32704934  0.79517407     0.07800
F1045       F  0.82067931  0.18223729  0.68759129    -0.19700
F1046       F  0.81712404  0.18798224  0.75281223    -0.15900
F1047       F  0.84774393  0.22637891  0.72106361    -0.19400
F1048       F  0.73534246  0.35852686  0.73067239    -0.22800
F1049       F  0.70741788  0.31308367  0.70156042    -0.24200
F1050       F  0.73589546  0.35079495  0.66534233    -0.18200
F1051       F  0.73966232  0.33423780  0.89499649    -0.20700
F1052       F  0.70694243  0.37250009  0.86560800    -0.21900
F1053       F  0.75145377  0.37390555  0.84529953    -0.19100
F1054       F  0.68333579  0.19916426  0.75565548    -0.19100
F1055       F  0.72959739  0.19300790  0.74696259    -0.23000
F1056       F  0.70470747  0.23425712  0.70870651    -0.24600
C1057       C  0.74917736  0.31494320  0.29580516    -0.11400
C1058       C  0.74668184  0.28148812  0.27107227     0.11200
C1059       C  0.76392427  0.24776515  0.27747130    -0.03200
C1060       C  0.78235479  0.24815808  0.30976075    -0.05900
C1061       C  0.78375854  0.28079340  0.33578621    -0.16700
C1062       C  0.76719570  0.31512273  0.32852346     0.02200
C1063       C  0.72559515  0.28259727  0.23889720     0.12200
C1064       C  0.76270740  0.21141277  0.25054961     0.62800
H1065       H  0.79542034  0.22247947  0.31551407     0.12200
C1066       C  0.76887815  0.35213498  0.35457562     0.54900
H1067       H  0.73633859  0.34074465  0.28963252     0.08000
C1068       C  0.69656323  0.27774181  0.24613462    -0.05800
C1069       C  0.67787589  0.27888627  0.21417758    -0.06600
C1070       C  0.68731371  0.28372258  0.17535875    -0.16100
C1071       C  0.71661651  0.28709479  0.16811831    -0.01700
C1072       C  0.73507279  0.28790008  0.20033488    -0.09300
C1073       C  0.68542420  0.27060396  0.28733666     0.65000
H1074       H  0.65559325  0.27585200  0.21931023     0.10400
C1075       C  0.72878828  0.28722343  0.12675051     0.63400
H1076       H  0.75732917  0.29189027  0.19563473     0.07800
F1077       F  0.75820868  0.34413924  0.39147338    -0.19700
F1078       F  0.75367159  0.38351879  0.33930316    -0.15900
F1079       F  0.79646344  0.36423895  0.35800405    -0.19400
F1080       F  0.77276973  0.22109642  0.21373518    -0.22800
F1081       F  0.73540341  0.19811755  0.24714572    -0.24200
F1082       F  0.77874413  0.18032274  0.26469182    -0.18200
F1083       F  0.75768996  0.28376831  0.12695384    -0.20700
F1084       F  0.72212287  0.32238390  0.10810708    -0.21900
F1085       F  0.71828225  0.25524841  0.10547700    -0.19100
F1086       F  0.65688895  0.26328308  0.28735162    -0.19100
F1087       F  0.69027796  0.30368771  0.31083596    -0.23000
F1088       F  0.69863557  0.23793631  0.30344882    -0.24600
C1089       C  0.50463922  0.95932957  0.99311512    -0.11400
C1090       C  0.98682377  0.99148127  0.00176847     0.11200
C1091       C  0.95875239  0.98460154  0.01304472    -0.03200
C1092       C  0.94966589  0.94505659  0.01677684    -0.05900
C1093       C  0.96755790  0.91283009  0.00862731    -0.16700
C1094       C  0.99546687  0.91974777  0.99652069     0.02200
C1095       C  0.49848813  0.03208859  0.99933405     0.12200
C1096       C  0.93851608  0.01881648  0.02061209     0.62800
H1097       H  0.92827074  0.93888557  0.02546606     0.12200
C1098       C  0.51564052  0.88561957  0.98868061     0.54900
H1099       H  0.52593545  0.96563369  0.98406573     0.08000
C1100       C  0.51430674  0.04877910  0.03044979    -0.05800
C1101       C  0.52590242  0.08677284  0.02551778    -0.06600
C1102       C  0.52283064  0.10777245  0.99023730    -0.16100
C1103       C  0.50639697  0.09129270  0.95935833    -0.01700
C1104       C  0.99451802  0.05339072  0.96456401    -0.09300
C1105       C  0.51971603  0.02597632  0.06811219     0.65000
H1106       H  0.53861093  0.09964969  0.04871965     0.10400
C1107       C  0.00116436  0.11336919  0.92125096     0.63400
H1108       H  0.98248269  0.03958278  0.94115720     0.07800
F1109       F  0.54257392  0.89910794  0.98162921    -0.19700
F1110       F  0.50699751  0.86400017  0.95611569    -0.15900
F1111       F  0.01647196  0.86087095  0.02093061    -0.19400
F1112       F  0.93503712  0.04043392  0.98657565    -0.22800
F1113       F  0.94879135  0.04374060  0.04976384    -0.24200
F1114       F  0.91244513  0.00537186  0.03244112    -0.18200
F1115       F  0.02538178  0.11390997  0.89891989    -0.20700
F1116       F  0.49273387  0.15204670  0.92933653    -0.21900
F1117       F  0.98039639  0.09533032  0.89900210    -0.19100
F1118       F  0.53412611  0.04878391  0.09551010    -0.19100
F1119       F  0.53553868  0.99242709  0.05981881    -0.23000
F1120       F  0.49467681  0.01444598  0.08496397    -0.24600
C1121       C  0.78847945  0.52164959  0.01891587    -0.11400
C1122       C  0.76505632  0.51621804  0.99467726     0.11200
C1123       C  0.75713093  0.54645150  0.96813896    -0.03200
C1124       C  0.77354386  0.58116071  0.96618407    -0.05900
C1125       C  0.79675616  0.58679823  0.99077975    -0.16700
C1126       C  0.80469984  0.55654121  0.01730389     0.02200
C1127       C  0.74830210  0.47942896  0.99948800     0.12200
C1128       C  0.73105843  0.54251589  0.94286761     0.62800
H1129       H  0.76791331  0.60479340  0.94620682     0.12200
C1130       C  0.83061099  0.56059643  0.04289305     0.54900
H1131       H  0.79379803  0.49830357  0.03937733     0.08000
C1132       C  0.75551286  0.44312374  0.98059876    -0.05800
C1133       C  0.73804103  0.40986267  0.98600912    -0.06600
C1134       C  0.71430212  0.41158203  0.01055120    -0.16100
C1135       C  0.70785332  0.44776597  0.03073751    -0.01700
C1136       C  0.72511539  0.48109680  0.02468992    -0.09300
C1137       C  0.78155358  0.43957900  0.95502313     0.65000
H1138       H  0.74292454  0.38199393  0.97120459     0.10400
C1139       C  0.68264893  0.45184741  0.05785694     0.63400
H1140       H  0.72065690  0.50906969  0.03958823     0.07800
F1141       F  0.83625000  0.52588762  0.06309650    -0.19700
F1142       F  0.82687522  0.59089968  0.07022024    -0.15900
F1143       F  0.85361812  0.56909744  0.01965234    -0.19400
F1144       F  0.70759900  0.54064159  0.96664756    -0.22800
F1145       F  0.73251021  0.50829730  0.92004317    -0.24200
F1146       F  0.72790305  0.57460513  0.91796774    -0.18200
F1147       F  0.68657650  0.42884421  0.09091802    -0.20700
F1148       F  0.65863716  0.43967450  0.03847465    -0.21900
F1149       F  0.67859659  0.49084676  0.07027824    -0.19100
F1150       F  0.78492064  0.40139132  0.93997469    -0.19100
F1151       F  0.80507271  0.44877002  0.97693106    -0.23000
F1152       F  0.77981056  0.46551065  0.92381327    -0.24600
loop_ 
_geom_bond_atom_site_label_1 
_geom_bond_atom_site_label_2 
_geom_bond_distance 
_geom_bond_site_symmetry_2 
_ccdc_geom_bond_type 
O1           Mg3   2.132   1_554  S
O1           Mg9   2.136       .  S
O1           C36   1.236       .  S
C2           O15   1.237       .  S
C2           O39   1.270       .  A
C2           H41   1.081       .  S
Mg3          O32   2.153       .  S
Mg3          O47   2.300       .  S
Mg3          O43   2.238       .  S
Mg3          O14   2.290       .  S
O4          Mg46   2.144       .  S
O4          Mg29   2.136       .  S
O4           C25   1.238       .  S
O5           C36   1.271       .  A
O5          Mg29   2.300       .  S
C6            O8   1.275       .  A
C6           O20   1.276       .  A
C6          C398   1.498       .  S
O7           C35   1.274   1_554  A
O7           Mg9   2.308       .  S
O8          Mg40   2.293       .  S
Mg9          O15   2.129       .  S
Mg9          O23   2.261       .  S
Mg9          O11   2.301       .  S
C10          O48   1.268       .  A
C10          O16   1.273   1_556  A
C10         C526   1.477       .  S
O11          C18   1.274       .  A
H12          C25   1.081       .  S
C13          O27   1.237       .  S
C13          O28   1.272       .  A
C13          H38   1.081       .  S
O14          C37   1.269       .  A
O15         Mg29   2.151       .  S
O16         Mg46   2.284       .  S
C17          O30   1.271       .  A
C17          O22   1.280       .  A
C17         C430   1.485       .  S
C18          O45   1.276       .  A
C18         C494   1.490       .  S
Mg19         O26   2.116       .  S
Mg19         O27   2.148       .  S
Mg19         O20   2.303       .  S
Mg19         O21   2.299       .  S
Mg19         O48   2.243       .  S
O21          C25   1.272   1_556  A
O22         Mg29   2.344       .  S
O23          C42   1.269       .  A
O24          C44   1.279       .  A
O24         Mg40   2.327       .  S
O26         Mg40   2.141       .  S
O26          C37   1.236       .  S
O27         Mg46   2.147   1_556  S
O28         Mg40   2.304       .  S
Mg29         O45   2.284       .  S
O30         Mg46   2.255       .  S
H31          C36   1.081       .  S
O32         Mg40   2.151       .  S
O32          C35   1.240       .  S
H33          C35   1.081       .  S
H34          C37   1.081       .  S
O39         Mg46   2.292       .  S
C42          O47   1.274   1_554  A
C42         C558   1.486       .  S
O43          C44   1.269       .  A
C44         C462   1.487       .  S
O49         Mg51   2.148   1_554  S
O49         Mg57   2.149       .  S
O49          C84   1.237       .  S
C50          O63   1.236       .  S
C50          O87   1.269       .  A
C50          H89   1.081       .  S
Mg51         O80   2.143       .  S
Mg51         O95   2.289       .  S
Mg51         O91   2.265       .  S
Mg51         O62   2.298       .  S
O52         Mg94   2.149       .  S
O52         Mg77   2.148       .  S
O52          C73   1.240       .  S
O53          C84   1.272       .  A
O53         Mg77   2.305       .  S
C54          O56   1.276       .  A
C54          O68   1.277       .  A
C54         C325   1.493       .  S
O55          C83   1.273   1_554  A
O55         Mg57   2.301       .  S
O56         Mg88   2.277       .  S
Mg57         O63   2.125       .  S
Mg57         O71   2.252       .  S
Mg57         O59   2.318       .  S
C58          O96   1.271       .  A
C58          O64   1.272   1_556  A
C58         C549   1.473       .  S
O59          C66   1.278       .  A
H60          C73   1.081       .  S
C61          O75   1.237       .  S
C61          O76   1.272       .  A
C61          H86   1.081       .  S
O62          C85   1.271       .  A
O63         Mg77   2.141       .  S
O64         Mg94   2.291       .  S
C65          O78   1.274       .  A
C65          O70   1.280       .  A
C65         C366   1.500       .  S
C66          O93   1.276       .  A
C66         C293   1.495       .  S
Mg67         O74   2.133       .  S
Mg67         O75   2.145       .  S
Mg67         O68   2.325       .  S
Mg67         O69   2.311       .  S
Mg67         O96   2.263       .  S
O69          C73   1.275   1_556  A
O70         Mg77   2.346       .  S
O71          C90   1.271       .  A
O72          C92   1.279       .  A
O72         Mg88   2.340       .  S
O74         Mg88   2.145       .  S
O74          C85   1.238       .  S
O75         Mg94   2.148   1_556  S
O76         Mg88   2.304       .  S
Mg77         O93   2.290       .  S
O78         Mg94   2.266       .  S
H79          C84   1.081       .  S
O80         Mg88   2.135       .  S
O80          C83   1.239       .  S
H81          C83   1.081       .  S
H82          C85   1.081       .  S
O87         Mg94   2.292       .  S
C90          O95   1.272   1_554  A
C90         C517   1.469       .  S
O91          C92   1.272       .  A
C92         C261   1.482       .  S
O97         Mg99   2.132       .  S
O97        Mg105   2.144       .  S
O97         C132   1.236       .  S
C98         O111   1.236       .  S
C98         O135   1.269       .  A
C98         H137   1.081       .  S
Mg99        O128   2.147       .  S
Mg99        O143   2.288       .  S
Mg99        O139   2.246       .  S
Mg99        O110   2.292       .  S
O100       Mg142   2.145       .  S
O100       Mg125   2.136       .  S
O100        C121   1.239       .  S
O101        C132   1.270       .  A
O101       Mg125   2.296       .  S
C102        O104   1.273       .  A
C102        O116   1.277       .  A
C102        C453   1.501       .  S
O103        C131   1.274       .  A
O103       Mg105   2.302       .  S
O104       Mg136   2.277       .  S
Mg105       O111   2.120       .  S
Mg105       O119   2.253       .  S
Mg105       O107   2.300       .  S
C106        O144   1.270       .  A
C106        O112   1.272       .  A
C106        C229   1.477       .  S
O107        C114   1.274       .  A
H108        C121   1.081       .  S
C109        O123   1.237       .  S
C109        O124   1.272       .  A
C109        H134   1.081       .  S
O110        C133   1.269       .  A
O111       Mg125   2.150       .  S
O112       Mg142   2.279       .  S
C113        O126   1.270       .  A
C113        O118   1.279       .  A
C113        C485   1.483       .  S
C114        O141   1.277       .  A
C114        C421   1.497       .  S
Mg115       O122   2.131       .  S
Mg115       O123   2.144       .  S
Mg115       O116   2.299       .  S
Mg115       O117   2.303       .  S
Mg115       O144   2.266       .  S
O117        C121   1.273       .  A
O118       Mg125   2.335       .  S
O119        C138   1.269       .  A
O120        C140   1.281       .  A
O120       Mg136   2.347       .  S
O122       Mg136   2.148       .  S
O122        C133   1.236       .  S
O123       Mg142   2.144       .  S
O124       Mg136   2.307       .  S
Mg125       O141   2.283       .  S
O126       Mg142   2.252       .  S
H127        C132   1.081       .  S
O128       Mg136   2.137       .  S
O128        C131   1.240       .  S
H129        C131   1.081       .  S
H130        C133   1.081       .  S
O135       Mg142   2.288       .  S
C138        O143   1.272       .  A
C138        C197   1.468       .  S
O139        C140   1.269       .  A
C140        C389   1.500       .  S
O145       Mg147   2.148       .  S
O145       Mg153   2.142       .  S
O145        C180   1.237       .  S
C146        O159   1.236       .  S
C146        O183   1.269       .  A
C146        H185   1.081       .  S
Mg147       O176   2.146       .  S
Mg147       O191   2.306       .  S
Mg147       O187   2.266       .  S
Mg147       O158   2.300       .  S
O148       Mg190   2.153       .  S
O148       Mg173   2.148       .  S
O148        C169   1.239       .  S
O149        C180   1.271       .  A
O149       Mg173   2.301       .  S
C150        O152   1.277       .  A
C150        O164   1.279       .  A
C150        C270   1.497       .  S
O151        C179   1.274       .  A
O151       Mg153   2.312       .  S
O152       Mg184   2.296       .  S
Mg153       O159   2.111       .  S
Mg153       O167   2.234       .  S
Mg153       O155   2.328       .  S
C154        O192   1.274       .  A
C154        O160   1.269       .  A
C154        C206   1.490       .  S
O155        C162   1.279       .  A
H156        C169   1.081       .  S
C157        O171   1.236       .  S
C157        O172   1.271       .  A
C157        H182   1.081       .  S
O158        C181   1.272       .  A
O159       Mg173   2.140       .  S
O160       Mg190   2.278       .  S
C161        O174   1.272       .  A
C161        O166   1.277       .  A
C161        C302   1.482       .  S
C162        O189   1.275       .  A
C162        C357   1.510       .  S
Mg163       O170   2.137       .  S
Mg163       O171   2.148       .  S
Mg163       O164   2.327       .  S
Mg163       O165   2.304       .  S
Mg163       O192   2.274       .  S
O165        C169   1.273       .  A
O166       Mg173   2.326       .  S
O167        C186   1.269       .  A
O168        C188   1.279       .  A
O168       Mg184   2.349       .  S
O170       Mg184   2.147       .  S
O170        C181   1.238       .  S
O171       Mg190   2.142       .  S
O172       Mg184   2.303       .  S
Mg173       O189   2.294       .  S
O174       Mg190   2.256       .  S
H175        C180   1.081       .  S
O176       Mg184   2.151       .  S
O176        C179   1.240       .  S
H177        C179   1.081       .  S
H178        C181   1.081       .  S
O183       Mg190   2.286       .  S
C186        O191   1.274       .  A
C186        C238   1.472       .  S
O187        C188   1.274       .  A
C188        C334   1.512       .  S
C193        H203   1.083   1_545  S
C193        C194   1.401       .  A
C193        C198   1.404       .  A
C194        C775   1.477   1_545  S
C194        C771   1.415       .  A
C195        C770   1.415   1_455  A
C195        C772   1.404   1_455  A
C195        C200   1.519       .  S
C196        H777   1.083       .  S
C196        C197   1.401       .  A
C196        C771   1.404       .  A
C197        C198   1.416       .  A
C198        C202   1.519       .  S
C199        C770   1.477   1_465  S
C199        C208   1.396       .  A
C199        C780   1.412       .  A
C200        F216   1.382       .  S
C200        F217   1.381       .  S
C200        F218   1.384       .  S
H201        C772   1.083       .  S
C202        F213   1.385       .  S
C202        F214   1.383       .  S
C202        F215   1.383       .  S
C204        C775   1.412       .  A
C204        C781   1.405       .  A
C204        C209   1.520       .  S
C205        H786   1.083       .  S
C205        C206   1.409       .  A
C205        C780   1.405       .  A
C206        C207   1.428       .  A
C207        C208   1.405       .  A
C207        C211   1.521       .  S
C208        H212   1.083       .  S
C209        F222   1.384       .  S
C209        F223   1.382       .  S
C209        F224   1.382   1_565  S
H210        C781   1.083       .  S
C211        F219   1.382       .  S
C211        F220   1.383       .  S
C211        F221   1.385       .  S
C225        H235   1.083       .  S
C225        C226   1.401       .  A
C225        C230   1.406       .  A
C226        C231   1.476       .  S
C226        C227   1.413       .  A
C227        C228   1.402       .  A
C227        C232   1.521       .  S
C228        H233   1.083       .  S
C228        C229   1.405       .  A
C229        C230   1.418       .  A
C230        C234   1.518       .  S
C231        C236   1.413       .  A
C231        C240   1.403       .  A
C232        F248   1.382       .  S
C232        F249   1.382       .  S
C232        F250   1.385       .  S
C234        F245   1.385       .  S
C234        F246   1.382       .  S
C234        F247   1.384       .  S
C236        C237   1.402       .  A
C236        C241   1.521       .  S
C237        H242   1.083       .  S
C237        C238   1.405       .  A
C238        C239   1.415       .  A
C239        C240   1.406       .  A
C239        C243   1.518       .  S
C240        H244   1.083       .  S
C241        F254   1.385       .  S
C241        F255   1.382       .  S
C241        F256   1.382       .  S
C243        F251   1.382       .  S
C243        F252   1.384       .  S
C243        F253   1.385       .  S
C257        H267   1.083       .  S
C257        C258   1.403       .  A
C257        C262   1.410       .  A
C258        C839   1.490       .  S
C258        C259   1.418       .  A
C259        C260   1.410       .  A
C259        C840   1.520       .  S
C260        H265   1.083       .  S
C260        C261   1.403       .  A
C261        C262   1.417       .  A
C262        C266   1.518       .  S
C263        C834   1.490       .  S
C263        C268   1.414       .  A
C263        C272   1.400       .  A
C264        C835   1.520   1_455  S
C264        F280   1.382       .  S
C264        F281   1.382       .  S
C264        F282   1.384   1_455  S
C266        F277   1.384       .  S
C266        F278   1.382       .  S
C266        F279   1.383       .  S
C268        C269   1.411       .  A
C268        C849   1.519   1_455  S
C269        H274   1.083       .  S
C269        C270   1.409       .  A
C270        C271   1.422       .  A
C271        C272   1.409       .  A
C271        C275   1.514       .  S
C272        H276   1.083       .  S
C273        C844   1.519       .  S
C273        F286   1.384       .  S
C273        F287   1.382       .  S
C273        F288   1.382       .  S
C275        F283   1.385       .  S
C275        F284   1.383       .  S
C275        F285   1.379       .  S
C289        H299   1.083       .  S
C289        C290   1.399       .  A
C289        C294   1.407       .  A
C290        C871   1.486       .  S
C290        C291   1.414       .  A
C291        C292   1.409       .  A
C291        C872   1.519       .  S
C292        H297   1.083       .  S
C292        C293   1.409       .  A
C293        C294   1.422       .  A
C294        C298   1.514       .  S
C295        C866   1.486   1_455  S
C295        C300   1.416       .  A
C295        C304   1.403       .  A
C296        C867   1.519   1_455  S
C296        F312   1.382       .  S
C296        F313   1.383       .  S
C296        F314   1.384       .  S
C298        F309   1.385       .  S
C298        F310   1.382       .  S
C298        F311   1.383       .  S
C300        C301   1.406       .  A
C300        C881   1.520   1_455  S
C301        H306   1.082       .  S
C301        C302   1.405       .  A
C302        C303   1.418       .  A
C303        C304   1.408       .  A
C303        C307   1.518       .  S
C304        H308   1.083       .  S
C305        C876   1.520       .  S
C305        F318   1.385       .  S
C305        F319   1.382       .  S
C305        F320   1.382       .  S
C307        F315   1.385       .  S
C307        F316   1.383       .  S
C307        F317   1.380       .  S
C321        H331   1.083       .  S
C321        C322   1.403       .  A
C321        C326   1.412       .  A
C322        C327   1.493       .  S
C322        C323   1.416       .  A
C323        C324   1.408       .  A
C323        C328   1.520       .  S
C324        H329   1.083       .  S
C324        C325   1.407       .  A
C325        C326   1.422       .  A
C326        C330   1.519       .  S
C327        C332   1.413       .  A
C327        C336   1.400       .  A
C328        F344   1.382       .  S
C328        F345   1.382       .  S
C328        F346   1.385       .  S
C330        F341   1.385       .  S
C330        F342   1.383       .  S
C330        F343   1.383       .  S
C332        C333   1.408       .  A
C332        C337   1.520       .  S
C333        H338   1.081       .  S
C333        C334   1.414       .  A
C334        C335   1.429       .  A
C335        C336   1.413       .  A
C335        C339   1.515       .  S
C336        H340   1.083       .  S
C337        F350   1.385       .  S
C337        F351   1.382       .  S
C337        F352   1.382       .  S
C339        F347   1.385       .  S
C339        F348   1.383       .  S
C339        F349   1.383       .  S
C353        H363   1.083       .  S
C353        C354   1.400       .  A
C353        C358   1.411       .  A
C354        C359   1.494       .  S
C354        C355   1.414       .  A
C355        C356   1.411       .  A
C355        C360   1.520       .  S
C356        H361   1.082       .  S
C356        C357   1.413       .  A
C357        C358   1.429       .  A
C358        C362   1.519       .  S
C359        C364   1.416       .  A
C359        C368   1.402       .  A
C360        F376   1.382       .  S
C360        F377   1.382       .  S
C360        F378   1.385       .  S
C362        F373   1.385       .  S
C362        F374   1.383       .  S
C362        F375   1.382       .  S
C364        C365   1.410       .  A
C364        C369   1.519       .  S
C365        H370   1.083       .  S
C365        C366   1.410       .  A
C366        C367   1.423       .  A
C367        C368   1.411       .  A
C367        C371   1.516       .  S
C368        H372   1.083       .  S
C369        F382   1.385       .  S
C369        F383   1.382       .  S
C369        F384   1.381       .  S
C371        F379   1.385       .  S
C371        F380   1.384       .  S
C371        F381   1.378       .  S
C385        H971   1.083       .  S
C385        C386   1.399       .  A
C385        C390   1.408       .  A
C386        C967   1.491       .  S
C386        C387   1.416       .  A
C387        C388   1.410       .  A
C387        C392   1.519       .  S
C388        H393   1.082       .  S
C388        C389   1.409       .  A
C389        C390   1.429       .  A
C390        C394   1.523       .  S
C391        C962   1.491   1_455  S
C391        C396   1.415       .  A
C391        C400   1.402       .  A
C392        F408   1.382       .  S
C392        F409   1.383       .  S
C392        F410   1.384       .  S
C394        F406   1.385       .  S
C394        F407   1.383       .  S
C394        F981   1.384       .  S
H395        C961   1.083   1_455  S
C396        C397   1.408       .  A
C396        C401   1.521   1_455  S
C397        H402   1.082       .  S
C397        C398   1.410       .  A
C398        C399   1.424       .  A
C399        C400   1.410       .  A
C399        C403   1.519       .  S
C400        H980   1.083       .  S
C401        F414   1.384   1_655  S
C401        F415   1.381   1_655  S
C401        F416   1.382       .  S
C403        F411   1.383       .  S
C403        F412   1.384       .  S
C403        F989   1.385       .  S
H404        C976   1.083       .  S
F405        C970   1.384       .  S
F413        C979   1.385       .  S
C417       H1003   1.083       .  S
C417        C418   1.398       .  A
C417        C422   1.408       .  A
C418        C999   1.487       .  S
C418        C419   1.415       .  A
C419        C420   1.409       .  A
C419        C424   1.519       .  S
C420        H425   1.083       .  S
C420        C421   1.409       .  A
C421        C422   1.429       .  A
C422        C426   1.522       .  S
C423        C994   1.487       .  S
C423        C428   1.417   1_655  A
C423        C432   1.400       .  A
C424        F440   1.382       .  S
C424        F441   1.382       .  S
C424        F442   1.385       .  S
C426        F438   1.385       .  S
C426        F439   1.383       .  S
C426       F1013   1.383       .  S
H427        C993   1.083   1_455  S
C428        C429   1.411       .  A
C428        C433   1.519       .  S
C429        H434   1.083       .  S
C429        C430   1.405       .  A
C430        C431   1.422       .  A
C431        C432   1.407   1_455  A
C431        C435   1.521       .  S
C432       H1012   1.083       .  S
C433        F446   1.384       .  S
C433        F447   1.382       .  S
C433        F448   1.382   1_455  S
C435        F443   1.385       .  S
C435        F444   1.383       .  S
C435       F1021   1.382       .  S
H436       C1008   1.083       .  S
F437       C1002   1.383       .  S
F445       C1011   1.382       .  S
C449        H459   1.083       .  S
C449        C450   1.400       .  A
C449        C454   1.410       .  A
C450        C455   1.483       .  S
C450        C451   1.410       .  A
C451        C452   1.405       .  A
C451        C456   1.522       .  S
C452        H457   1.082       .  S
C452        C453   1.413       .  A
C453        C454   1.429       .  A
C454        C458   1.522       .  S
C455        C460   1.414       .  A
C455        C464   1.399       .  A
C456        F472   1.382       .  S
C456        F473   1.382       .  S
C456        F474   1.383       .  S
C458        F469   1.384       .  S
C458        F470   1.385       .  S
C458        F471   1.383       .  S
C460        C461   1.408       .  A
C460        C465   1.520       .  S
C461        H466   1.083       .  S
C461        C462   1.408       .  A
C462        C463   1.425       .  A
C463        C464   1.405       .  A
C463        C467   1.522       .  S
C464        H468   1.083       .  S
C465        F478   1.385       .  S
C465        F479   1.382       .  S
C465        F480   1.381       .  S
C467        F475   1.383       .  S
C467        F476   1.384       .  S
C467        F477   1.385       .  S
C481        H491   1.083       .  S
C481        C482   1.402       .  A
C481        C486   1.408       .  A
C482        C487   1.489       .  S
C482        C483   1.418       .  A
C483        C484   1.409       .  A
C483        C488   1.519       .  S
C484        H489   1.083       .  S
C484        C485   1.403       .  A
C485        C486   1.421       .  A
C486        C490   1.521       .  S
C487        C492   1.417       .  A
C487        C496   1.400       .  A
C488        F504   1.382       .  S
C488        F505   1.383       .  S
C488        F506   1.384       .  S
C490        F501   1.382       .  S
C490        F502   1.385       .  S
C490        F503   1.383       .  S
C492        C493   1.408       .  A
C492        C497   1.519       .  S
C493        H498   1.083       .  S
C493        C494   1.405       .  A
C494        C495   1.425       .  A
C495        C496   1.408       .  A
C495        C499   1.521       .  S
C496        H500   1.083       .  S
C497        F510   1.385       .  S
C497        F511   1.382       .  S
C497        F512   1.383       .  S
C499        F507   1.385       .  S
C499        F508   1.382       .  S
C499        F509   1.383       .  S
C513        H523   1.083       .  S
C513       C1090   1.402   1_456  A
C513       C1094   1.404   1_455  A
C514       C1095   1.475   1_564  S
C514        C515   1.413       .  A
C514       C1089   1.402   1_554  A
C515        C516   1.403       .  A
C515        C520   1.520   1_565  S
C516        H521   1.083       .  S
C516        C517   1.403       .  A
C517        C518   1.414   1_554  A
C518       C1089   1.404       .  A
C518       C1098   1.517       .  S
C519       C1090   1.475   1_546  S
C519        C524   1.413   1_656  A
C519       C1104   1.401       .  A
C520        F536   1.382   1_554  S
C520        F537   1.382       .  S
C520        F538   1.384       .  S
C522       C1094   1.517   1_455  S
C522        F533   1.385       .  S
C522        F534   1.382       .  S
C522       F1111   1.383   1_556  S
C524        C525   1.401       .  A
C524        C529   1.521       .  S
C525        H530   1.083       .  S
C525        C526   1.405   1_554  A
C526        C527   1.420       .  A
C527       C1104   1.405   1_455  A
C527       C1107   1.520       .  S
C528        H532   1.083       .  S
C528       C1095   1.401       .  A
C528       C1103   1.405       .  A
C529        F542   1.384       .  S
C529        F543   1.382   1_545  S
C529        F544   1.382   1_455  S
C531       C1103   1.520       .  S
C531        F539   1.382       .  S
C531        F541   1.385       .  S
C531       F1116   1.384       .  S
F535       C1098   1.383   1_554  S
F540       C1107   1.384   1_655  S
C545        H555   1.083       .  S
C545        C546   1.402   1_554  A
C545        C550   1.405       .  A
C546        C551   1.481       .  S
C546        C547   1.416       .  A
C547        C548   1.406       .  A
C547        C552   1.519       .  S
C548        H553   1.083       .  S
C548        C549   1.402       .  A
C549        C550   1.417   1_556  A
C550        C554   1.519       .  S
C551        C556   1.414       .  A
C551        C560   1.400   1_556  A
C552        F568   1.382       .  S
C552        F569   1.382       .  S
C552        F570   1.385       .  S
C554        F565   1.384       .  S
C554        F566   1.382       .  S
C554        F567   1.383       .  S
C556        C557   1.407       .  A
C556        C561   1.520       .  S
C557        H562   1.083       .  S
C557        C558   1.407   1_556  A
C558        C559   1.422       .  A
C559        C560   1.406       .  A
C559        C563   1.520       .  S
C560        H564   1.083       .  S
C561        F574   1.384       .  S
C561        F575   1.382       .  S
C561        F576   1.382       .  S
C563        F571   1.383       .  S
C563        F572   1.384       .  S
C563        F573   1.385       .  S
O577       Mg579   2.132   1_554  S
O577       Mg585   2.136       .  S
O577        C612   1.236       .  S
C578        O591   1.237       .  S
C578        O615   1.270       .  A
C578        H617   1.081       .  S
Mg579       O608   2.153       .  S
Mg579       O623   2.300       .  S
Mg579       O619   2.238       .  S
Mg579       O590   2.290       .  S
O580       Mg622   2.144       .  S
O580       Mg605   2.136       .  S
O580        C601   1.238       .  S
O581        C612   1.271       .  A
O581       Mg605   2.300       .  S
C582        O584   1.275       .  A
C582        O596   1.276       .  A
C582        C974   1.498       .  S
O583        C611   1.274   1_554  A
O583       Mg585   2.308       .  S
O584       Mg616   2.293       .  S
Mg585       O591   2.129       .  S
Mg585       O599   2.261       .  S
Mg585       O587   2.301       .  S
C586        O624   1.268       .  A
C586        O592   1.273   1_556  A
C586       C1102   1.477       .  S
O587        C594   1.274       .  A
H588        C601   1.081       .  S
C589        O603   1.237       .  S
C589        O604   1.272       .  A
C589        H614   1.081       .  S
O590        C613   1.269       .  A
O591       Mg605   2.151       .  S
O592       Mg622   2.284       .  S
C593        O606   1.271       .  A
C593        O598   1.280       .  A
C593       C1006   1.485       .  S
C594        O621   1.276       .  A
C594       C1070   1.490       .  S
Mg595       O602   2.116       .  S
Mg595       O603   2.148       .  S
Mg595       O596   2.303       .  S
Mg595       O597   2.299       .  S
Mg595       O624   2.243       .  S
O597        C601   1.272   1_556  A
O598       Mg605   2.344       .  S
O599        C618   1.269       .  A
O600        C620   1.279       .  A
O600       Mg616   2.327       .  S
O602       Mg616   2.141       .  S
O602        C613   1.236       .  S
O603       Mg622   2.147   1_556  S
O604       Mg616   2.304       .  S
Mg605       O621   2.284       .  S
O606       Mg622   2.255       .  S
H607        C612   1.081       .  S
O608       Mg616   2.151       .  S
O608        C611   1.240       .  S
H609        C611   1.081       .  S
H610        C613   1.081       .  S
O615       Mg622   2.292       .  S
C618        O623   1.274   1_554  A
C618       C1134   1.486       .  S
O619        C620   1.269       .  A
C620       C1038   1.487       .  S
O625       Mg627   2.148   1_554  S
O625       Mg633   2.149       .  S
O625        C660   1.237       .  S
C626        O639   1.236       .  S
C626        O663   1.269       .  A
C626        H665   1.081       .  S
Mg627       O656   2.143       .  S
Mg627       O671   2.289       .  S
Mg627       O667   2.265       .  S
Mg627       O638   2.298       .  S
O628       Mg670   2.149       .  S
O628       Mg653   2.148       .  S
O628        C649   1.240       .  S
O629        C660   1.272       .  A
O629       Mg653   2.305       .  S
C630        O632   1.276       .  A
C630        O644   1.277       .  A
C630        C901   1.493       .  S
O631        C659   1.273   1_554  A
O631       Mg633   2.301       .  S
O632       Mg664   2.277       .  S
Mg633       O639   2.125       .  S
Mg633       O647   2.252       .  S
Mg633       O635   2.318       .  S
C634        O672   1.271       .  A
C634        O640   1.272   1_556  A
C634       C1125   1.473       .  S
O635        C642   1.278       .  A
H636        C649   1.081       .  S
C637        O651   1.237       .  S
C637        O652   1.272       .  A
C637        H662   1.081       .  S
O638        C661   1.271       .  A
O639       Mg653   2.141       .  S
O640       Mg670   2.291       .  S
C641        O654   1.273       .  A
C641        O646   1.280       .  A
C641        C942   1.500       .  S
C642        O669   1.276       .  A
C642        C869   1.495       .  S
Mg643       O650   2.133       .  S
Mg643       O651   2.145       .  S
Mg643       O644   2.325       .  S
Mg643       O645   2.311       .  S
Mg643       O672   2.263       .  S
O645        C649   1.275   1_556  A
O646       Mg653   2.346       .  S
O647        C666   1.271       .  A
O648        C668   1.279       .  A
O648       Mg664   2.340       .  S
O650       Mg664   2.145       .  S
O650        C661   1.238       .  S
O651       Mg670   2.148   1_556  S
O652       Mg664   2.304       .  S
Mg653       O669   2.290       .  S
O654       Mg670   2.266       .  S
H655        C660   1.081       .  S
O656       Mg664   2.135       .  S
O656        C659   1.239       .  S
H657        C659   1.081       .  S
H658        C661   1.081       .  S
O663       Mg670   2.292       .  S
C666        O671   1.272   1_554  A
C666       C1093   1.469       .  S
O667        C668   1.272       .  A
C668        C837   1.482       .  S
O673       Mg675   2.132       .  S
O673       Mg681   2.144       .  S
O673        C708   1.236       .  S
C674        O687   1.236       .  S
C674        O711   1.269       .  A
C674        H713   1.081       .  S
Mg675       O704   2.147       .  S
Mg675       O719   2.288       .  S
Mg675       O715   2.246       .  S
Mg675       O686   2.292       .  S
O676       Mg718   2.145       .  S
O676       Mg701   2.136       .  S
O676        C697   1.239       .  S
O677        C708   1.270       .  A
O677       Mg701   2.296       .  S
C678        O680   1.273       .  A
C678        O692   1.277       .  A
C678       C1029   1.501       .  S
O679        C707   1.274       .  A
O679       Mg681   2.302       .  S
O680       Mg712   2.277       .  S
Mg681       O687   2.120       .  S
Mg681       O695   2.253       .  S
Mg681       O683   2.300       .  S
C682        O720   1.270       .  A
C682        O688   1.272       .  A
C682        C805   1.477       .  S
O683        C690   1.274       .  A
H684        C697   1.081       .  S
C685        O699   1.237       .  S
C685        O700   1.272       .  A
C685        H710   1.081       .  S
O686        C709   1.269       .  A
O687       Mg701   2.150       .  S
O688       Mg718   2.279       .  S
C689        O702   1.270       .  A
C689        O694   1.279       .  A
C689       C1061   1.483       .  S
C690        O717   1.277       .  A
C690        C997   1.497       .  S
Mg691       O698   2.131       .  S
Mg691       O699   2.144       .  S
Mg691       O692   2.299       .  S
Mg691       O693   2.303       .  S
Mg691       O720   2.266       .  S
O693        C697   1.273       .  A
O694       Mg701   2.335       .  S
O695        C714   1.269       .  A
O696        C716   1.281       .  A
O696       Mg712   2.347       .  S
O698       Mg712   2.148       .  S
O698        C709   1.236       .  S
O699       Mg718   2.144       .  S
O700       Mg712   2.307       .  S
Mg701       O717   2.283       .  S
O702       Mg718   2.252       .  S
H703        C708   1.081       .  S
O704       Mg712   2.137       .  S
O704        C707   1.240       .  S
H705        C707   1.081       .  S
H706        C709   1.081       .  S
O711       Mg718   2.288       .  S
C714        O719   1.272       .  A
C714        C773   1.468       .  S
O715        C716   1.269       .  A
C716        C965   1.500       .  S
O721       Mg723   2.148       .  S
O721       Mg729   2.142       .  S
O721        C756   1.237       .  S
C722        O735   1.236       .  S
C722        O759   1.269       .  A
C722        H761   1.081       .  S
Mg723       O752   2.146       .  S
Mg723       O767   2.306       .  S
Mg723       O763   2.266       .  S
Mg723       O734   2.300       .  S
O724       Mg766   2.153       .  S
O724       Mg749   2.148       .  S
O724        C745   1.239       .  S
O725        C756   1.271       .  A
O725       Mg749   2.301       .  S
C726        O728   1.277       .  A
C726        O740   1.279       .  A
C726        C846   1.497       .  S
O727        C755   1.274       .  A
O727       Mg729   2.312       .  S
O728       Mg760   2.296       .  S
Mg729       O735   2.111       .  S
Mg729       O743   2.234       .  S
Mg729       O731   2.328       .  S
C730        O768   1.274       .  A
C730        O736   1.269       .  A
C730        C782   1.490       .  S
O731        C738   1.279       .  A
H732        C745   1.081       .  S
C733        O747   1.236       .  S
C733        O748   1.271       .  A
C733        H758   1.081       .  S
O734        C757   1.272       .  A
O735       Mg749   2.140       .  S
O736       Mg766   2.278       .  S
C737        O750   1.272       .  A
C737        O742   1.277       .  A
C737        C878   1.482       .  S
C738        O765   1.275       .  A
C738        C933   1.510       .  S
Mg739       O746   2.137       .  S
Mg739       O747   2.148       .  S
Mg739       O740   2.327       .  S
Mg739       O741   2.304       .  S
Mg739       O768   2.274       .  S
O741        C745   1.273       .  A
O742       Mg749   2.326       .  S
O743        C762   1.269       .  A
O744        C764   1.279       .  A
O744       Mg760   2.349       .  S
O746       Mg760   2.147       .  S
O746        C757   1.238       .  S
O747       Mg766   2.142       .  S
O748       Mg760   2.303       .  S
Mg749       O765   2.294       .  S
O750       Mg766   2.256       .  S
H751        C756   1.081       .  S
O752       Mg760   2.151       .  S
O752        C755   1.240       .  S
H753        C755   1.081       .  S
H754        C757   1.081       .  S
O759       Mg766   2.286       .  S
C762        O767   1.274       .  A
C762        C814   1.472       .  S
O763        C764   1.274       .  A
C764        C910   1.512       .  S
C769        H779   1.083   1_545  S
C769        C770   1.401       .  A
C769        C774   1.404       .  A
C771        C776   1.519       .  S
C772        C773   1.401       .  A
C773        C774   1.416       .  A
C774        C778   1.519       .  S
C775        C784   1.396       .  A
C776        F792   1.382       .  S
C776        F793   1.381       .  S
C776        F794   1.384       .  S
C778        F789   1.385       .  S
C778        F790   1.383       .  S
C778        F791   1.383       .  S
C780        C785   1.520   1_455  S
C781        C782   1.409       .  A
C782        C783   1.428       .  A
C783        C784   1.405       .  A
C783        C787   1.521       .  S
C784        H788   1.083       .  S
C785        F798   1.384   1_655  S
C785        F799   1.382       .  S
C785        F800   1.382   1_665  S
C787        F795   1.382       .  S
C787        F796   1.383       .  S
C787        F797   1.385       .  S
C801        H811   1.083       .  S
C801        C802   1.401       .  A
C801        C806   1.406       .  A
C802        C807   1.476       .  S
C802        C803   1.413       .  A
C803        C804   1.402       .  A
C803        C808   1.521       .  S
C804        H809   1.083       .  S
C804        C805   1.405       .  A
C805        C806   1.418       .  A
C806        C810   1.518       .  S
C807        C812   1.413       .  A
C807        C816   1.403       .  A
C808        F824   1.382       .  S
C808        F825   1.382       .  S
C808        F826   1.385       .  S
C810        F821   1.385       .  S
C810        F822   1.382       .  S
C810        F823   1.384       .  S
C812        C813   1.402       .  A
C812        C817   1.521       .  S
C813        H818   1.083       .  S
C813        C814   1.405       .  A
C814        C815   1.415       .  A
C815        C816   1.406       .  A
C815        C819   1.518       .  S
C816        H820   1.083       .  S
C817        F830   1.385       .  S
C817        F831   1.382       .  S
C817        F832   1.382       .  S
C819        F827   1.382       .  S
C819        F828   1.384       .  S
C819        F829   1.385       .  S
C833        H843   1.083   1_655  S
C833        C834   1.403   1_655  A
C833        C838   1.410       .  A
C834        C835   1.418   1_455  A
C835        C836   1.410       .  A
C836        H841   1.083       .  S
C836        C837   1.403       .  A
C837        C838   1.417       .  A
C838        C842   1.518       .  S
C839        C844   1.414       .  A
C839        C848   1.400       .  A
C840        F856   1.382       .  S
C840        F857   1.382       .  S
C840        F858   1.384       .  S
C842        F853   1.384       .  S
C842        F854   1.382       .  S
C842        F855   1.383       .  S
C844        C845   1.411       .  A
C845        H850   1.083       .  S
C845        C846   1.409       .  A
C846        C847   1.422       .  A
C847        C848   1.409       .  A
C847        C851   1.514       .  S
C848        H852   1.083       .  S
C849        F862   1.384       .  S
C849        F863   1.382       .  S
C849        F864   1.382       .  S
C851        F859   1.385       .  S
C851        F860   1.383       .  S
C851        F861   1.379       .  S
C865        H875   1.083       .  S
C865        C866   1.399       .  A
C865        C870   1.407       .  A
C866        C867   1.414       .  A
C867        C868   1.409       .  A
C868        H873   1.083       .  S
C868        C869   1.409       .  A
C869        C870   1.422       .  A
C870        C874   1.514       .  S
C871        C876   1.416       .  A
C871        C880   1.403       .  A
C872        F888   1.382       .  S
C872        F889   1.383       .  S
C872        F890   1.384       .  S
C874        F885   1.385       .  S
C874        F886   1.382       .  S
C874        F887   1.383       .  S
C876        C877   1.406       .  A
C877        H882   1.082       .  S
C877        C878   1.405       .  A
C878        C879   1.418       .  A
C879        C880   1.408       .  A
C879        C883   1.518       .  S
C880        H884   1.083       .  S
C881        F894   1.385   1_655  S
C881        F895   1.382       .  S
C881        F896   1.382   1_655  S
C883        F891   1.385       .  S
C883        F892   1.383       .  S
C883        F893   1.380       .  S
C897        H907   1.083       .  S
C897        C898   1.403       .  A
C897        C902   1.412       .  A
C898        C903   1.493       .  S
C898        C899   1.416       .  A
C899        C900   1.408       .  A
C899        C904   1.520       .  S
C900        H905   1.083       .  S
C900        C901   1.407       .  A
C901        C902   1.422       .  A
C902        C906   1.519       .  S
C903        C908   1.413       .  A
C903        C912   1.400       .  A
C904        F920   1.382       .  S
C904        F921   1.382       .  S
C904        F922   1.385       .  S
C906        F917   1.385       .  S
C906        F918   1.383       .  S
C906        F919   1.383       .  S
C908        C909   1.408       .  A
C908        C913   1.520       .  S
C909        H914   1.081       .  S
C909        C910   1.414       .  A
C910        C911   1.429       .  A
C911        C912   1.413       .  A
C911        C915   1.515       .  S
C912        H916   1.083       .  S
C913        F926   1.385       .  S
C913        F927   1.382       .  S
C913        F928   1.382       .  S
C915        F923   1.385       .  S
C915        F924   1.383       .  S
C915        F925   1.383       .  S
C929        H939   1.083       .  S
C929        C930   1.400       .  A
C929        C934   1.411       .  A
C930        C935   1.494       .  S
C930        C931   1.414       .  A
C931        C932   1.411       .  A
C931        C936   1.520       .  S
C932        H937   1.082       .  S
C932        C933   1.413       .  A
C933        C934   1.429       .  A
C934        C938   1.519       .  S
C935        C940   1.416       .  A
C935        C944   1.402       .  A
C936        F952   1.382       .  S
C936        F953   1.382       .  S
C936        F954   1.385       .  S
C938        F949   1.385       .  S
C938        F950   1.383       .  S
C938        F951   1.382       .  S
C940        C941   1.410       .  A
C940        C945   1.519       .  S
C941        H946   1.083       .  S
C941        C942   1.410       .  A
C942        C943   1.423       .  A
C943        C944   1.411       .  A
C943        C947   1.516       .  S
C944        H948   1.083       .  S
C945        F958   1.385       .  S
C945        F959   1.382       .  S
C945        F960   1.381       .  S
C947        F955   1.385       .  S
C947        F956   1.384       .  S
C947        F957   1.378       .  S
C961        C962   1.399       .  A
C961        C966   1.408       .  A
C962        C963   1.416       .  A
C963        C964   1.410       .  A
C963        C968   1.519       .  S
C964        H969   1.082       .  S
C964        C965   1.409       .  A
C965        C966   1.429       .  A
C966        C970   1.523       .  S
C967        C972   1.415       .  A
C967        C976   1.402       .  A
C968        F984   1.382       .  S
C968        F985   1.383       .  S
C968        F986   1.384       .  S
C970        F982   1.385   1_655  S
C970        F983   1.383       .  S
C972        C973   1.408       .  A
C972        C977   1.521       .  S
C973        H978   1.082       .  S
C973        C974   1.410       .  A
C974        C975   1.424       .  A
C975        C976   1.410       .  A
C975        C979   1.519       .  S
C977        F990   1.384       .  S
C977        F991   1.381       .  S
C977        F992   1.382       .  S
C979        F987   1.383       .  S
C979        F988   1.384       .  S
C993        C994   1.398       .  A
C993        C998   1.408       .  A
C994        C995   1.415       .  A
C995        C996   1.409       .  A
C995       C1000   1.519       .  S
C996       H1001   1.083       .  S
C996        C997   1.409       .  A
C997        C998   1.429       .  A
C998       C1002   1.522       .  S
C999       C1004   1.417       .  A
C999       C1008   1.400       .  A
C1000      F1016   1.382       .  S
C1000      F1017   1.382       .  S
C1000      F1018   1.385       .  S
C1002      F1014   1.385   1_655  S
C1002      F1015   1.383       .  S
C1004      C1005   1.411       .  A
C1004      C1009   1.519       .  S
C1005      H1010   1.083       .  S
C1005      C1006   1.405       .  A
C1006      C1007   1.422       .  A
C1007      C1008   1.407       .  A
C1007      C1011   1.521       .  S
C1009      F1022   1.384       .  S
C1009      F1023   1.382       .  S
C1009      F1024   1.382       .  S
C1011      F1019   1.385       .  S
C1011      F1020   1.383       .  S
C1025      H1035   1.083       .  S
C1025      C1026   1.400       .  A
C1025      C1030   1.410       .  A
C1026      C1031   1.483       .  S
C1026      C1027   1.410       .  A
C1027      C1028   1.405       .  A
C1027      C1032   1.522       .  S
C1028      H1033   1.082       .  S
C1028      C1029   1.413       .  A
C1029      C1030   1.429       .  A
C1030      C1034   1.522       .  S
C1031      C1036   1.414       .  A
C1031      C1040   1.399       .  A
C1032      F1048   1.382       .  S
C1032      F1049   1.382       .  S
C1032      F1050   1.383       .  S
C1034      F1045   1.384       .  S
C1034      F1046   1.385       .  S
C1034      F1047   1.383       .  S
C1036      C1037   1.408       .  A
C1036      C1041   1.520       .  S
C1037      H1042   1.083       .  S
C1037      C1038   1.408       .  A
C1038      C1039   1.425       .  A
C1039      C1040   1.405       .  A
C1039      C1043   1.522       .  S
C1040      H1044   1.083       .  S
C1041      F1054   1.385       .  S
C1041      F1055   1.382       .  S
C1041      F1056   1.381       .  S
C1043      F1051   1.383       .  S
C1043      F1052   1.384       .  S
C1043      F1053   1.385       .  S
C1057      H1067   1.083       .  S
C1057      C1058   1.402       .  A
C1057      C1062   1.408       .  A
C1058      C1063   1.489       .  S
C1058      C1059   1.418       .  A
C1059      C1060   1.409       .  A
C1059      C1064   1.519       .  S
C1060      H1065   1.083       .  S
C1060      C1061   1.403       .  A
C1061      C1062   1.421       .  A
C1062      C1066   1.521       .  S
C1063      C1068   1.417       .  A
C1063      C1072   1.400       .  A
C1064      F1080   1.382       .  S
C1064      F1081   1.383       .  S
C1064      F1082   1.384       .  S
C1066      F1077   1.382       .  S
C1066      F1078   1.385       .  S
C1066      F1079   1.383       .  S
C1068      C1069   1.408       .  A
C1068      C1073   1.519       .  S
C1069      H1074   1.083       .  S
C1069      C1070   1.405       .  A
C1070      C1071   1.425       .  A
C1071      C1072   1.408       .  A
C1071      C1075   1.521       .  S
C1072      H1076   1.083       .  S
C1073      F1086   1.385       .  S
C1073      F1087   1.382       .  S
C1073      F1088   1.383       .  S
C1075      F1083   1.385       .  S
C1075      F1084   1.382       .  S
C1075      F1085   1.383       .  S
C1089      H1099   1.083       .  S
C1090      C1091   1.413       .  A
C1091      C1092   1.403       .  A
C1091      C1096   1.520   1_565  S
C1092      H1097   1.083       .  S
C1092      C1093   1.403       .  A
C1093      C1094   1.414   1_554  A
C1095      C1100   1.413   1_556  A
C1096      F1112   1.382   1_554  S
C1096      F1113   1.382       .  S
C1096      F1114   1.384       .  S
C1098      F1109   1.385       .  S
C1098      F1110   1.382       .  S
C1100      C1101   1.401       .  A
C1100      C1105   1.521       .  S
C1101      H1106   1.083       .  S
C1101      C1102   1.405   1_554  A
C1102      C1103   1.420       .  A
C1104      H1108   1.083       .  S
C1105      F1118   1.384       .  S
C1105      F1119   1.382   1_545  S
C1105      F1120   1.382       .  S
C1107      F1115   1.382       .  S
C1107      F1117   1.385   1_455  S
C1121      H1131   1.083       .  S
C1121      C1122   1.402   1_554  A
C1121      C1126   1.405       .  A
C1122      C1127   1.481       .  S
C1122      C1123   1.416       .  A
C1123      C1124   1.406       .  A
C1123      C1128   1.519       .  S
C1124      H1129   1.083       .  S
C1124      C1125   1.402       .  A
C1125      C1126   1.417   1_556  A
C1126      C1130   1.519       .  S
C1127      C1132   1.414       .  A
C1127      C1136   1.400   1_556  A
C1128      F1144   1.382       .  S
C1128      F1145   1.382       .  S
C1128      F1146   1.385       .  S
C1130      F1141   1.384       .  S
C1130      F1142   1.382       .  S
C1130      F1143   1.383       .  S
C1132      C1133   1.407       .  A
C1132      C1137   1.520       .  S
C1133      H1138   1.083       .  S
C1133      C1134   1.407   1_556  A
C1134      C1135   1.422       .  A
C1135      C1136   1.406       .  A
C1135      C1139   1.520       .  S
C1136      H1140   1.083       .  S
C1137      F1150   1.384       .  S
C1137      F1151   1.382       .  S
C1137      F1152   1.382       .  S
C1139      F1147   1.383       .  S
C1139      F1148   1.384       .  S
C1139      F1149   1.385       .  S
