geometry optimzed in LAMMPS
_audit_creation_date              2020-12-01 
_audit_creation_method            'lammps2cif' 
_symmetry_space_group_name_H-M    'P1' 
_symmetry_Int_Tables_number       1 
_symmetry_cell_setting            triclinic 
loop_ 
_symmetry_equiv_pos_as_xyz 
  x,y,z 
_cell_length_a                    45.16643255 
_cell_length_b                    45.28458169027457 
_cell_length_c                    45.2686356579474 
_cell_angle_alpha                 89.96301162213587 
_cell_angle_beta                  89.96617233248494 
_cell_angle_gamma                 90.14930368368096 
loop_ 
_atom_site_label 
_atom_site_type_symbol 
_atom_site_fract_x 
_atom_site_fract_y 
_atom_site_fract_z 
_atom_site_charge 
N1          N  0.06126822  0.48464475  0.21434914    -0.07300
N2          N  0.07856399  0.47474355  0.19297016    -0.59400
N3          N  0.05846867  0.01738797  0.28300963    -0.07000
N4          N  0.07536425  0.02808110  0.30427477    -0.61600
N5          N  0.06055375  0.48494358  0.28242367    -0.06600
N6          N  0.07758237  0.47492680  0.30390411    -0.59400
N7          N  0.06049517  0.01591609  0.21530971    -0.06300
N8          N  0.07869157  0.02589376  0.19479167    -0.61900
C9          C  0.09010133  0.00115298  0.18256447     0.94900
C10         C  0.08801330  0.49972705  0.31707643     0.94700
N11         N  0.47889149  0.06480850  0.28106460    -0.07500
N12         N  0.46790323  0.08128186  0.30244446    -0.60000
N13         N  0.01092227  0.06444643  0.21253372    -0.05600
N14         N  0.02189751  0.08039081  0.19070631    -0.61300
N15         N  0.48092584  0.06509184  0.21323657    -0.07500
N16         N  0.47114913  0.08249061  0.19197217    -0.60300
N17         N  0.00879103  0.06585256  0.28055002    -0.05300
N18         N  0.01839481  0.08228446  0.30257177    -0.61300
Mn19       Mn  0.03524441  0.04160870  0.24785504     1.18400
C20         C  0.49218348  0.09178189  0.31647622     0.97000
C21         C  0.99778039  0.09030022  0.17607093     0.97600
N22         N  0.01039286  0.43685382  0.28246351    -0.07500
N23         N  0.02035510  0.42062235  0.30447171    -0.63800
N24         N  0.48267120  0.43793396  0.21243635    -0.06300
N25         N  0.47285726  0.42164628  0.19032805    -0.64500
N26         N  0.01102548  0.43570366  0.21461736    -0.07000
N27         N  0.02133814  0.41868928  0.19334662    -0.64100
N28         N  0.48134969  0.43743247  0.28020627    -0.05900
N29         N  0.47079591  0.41959298  0.30072585    -0.64800
Mn30       Mn  0.03643871  0.45977158  0.24839443     1.10700
C31         C  0.49533027  0.40884865  0.31400923     0.98200
C32         C  0.99674950  0.40821619  0.17983876     0.98300
N33         N  0.43301331  0.01496934  0.21204135    -0.07100
N34         N  0.41711235  0.02502219  0.18983683    -0.62400
N35         N  0.43199243  0.48632725  0.27984986    -0.06400
N36         N  0.41521033  0.47598902  0.30139067    -0.59200
N37         N  0.43068466  0.01475050  0.27985745    -0.07700
N38         N  0.41347918  0.02463302  0.30125129    -0.62000
N39         N  0.43335606  0.48647501  0.21188989    -0.06700
N40         N  0.41714563  0.47612181  0.18999109    -0.59200
Mn41       Mn  0.45515103  0.04052605  0.24655559     1.20200
Mn42       Mn  0.45666808  0.46139828  0.24612742     1.10100
Cl43       Cl  0.99559998  0.00173380  0.24760506    -0.87100
C44         C  0.40776747  0.00026327  0.17596701     0.95200
C45         C  0.40481244  0.50053806  0.31489675     0.95000
N46         N  0.47931231  0.21892628  0.06071322    -0.07300
N47         N  0.46881465  0.19811538  0.07832797    -0.59400
N48         N  0.01060605  0.28465520  0.05997598    -0.07000
N49         N  0.02053522  0.30604776  0.07718882    -0.61600
N50         N  0.48068617  0.28681553  0.05904072    -0.06600
N51         N  0.47064765  0.30888379  0.07516876    -0.59400
N52         N  0.01050191  0.21650464  0.05916885    -0.06300
N53         N  0.02071273  0.19434197  0.07507957    -0.61900
C54         C  0.99602324  0.18034503  0.08476884     0.94900
C55         C  0.49540992  0.32245735  0.08515114     0.94700
N56         N  0.06101466  0.28462585  0.48286804    -0.07500
N57         N  0.07750977  0.30671561  0.47297442    -0.60000
N58         N  0.05997277  0.21676366  0.01033781    -0.05600
N59         N  0.07667415  0.19509712  0.02037597    -0.61300
N60         N  0.06044609  0.21636242  0.48311889    -0.07500
N61         N  0.07667835  0.19441094  0.47293900    -0.60300
N62         N  0.06027857  0.28497880  0.01068557    -0.05300
N63         N  0.07703268  0.30670904  0.02076646    -0.61300
Mn64       Mn  0.03604524  0.25079673  0.03577859     1.18400
C65         C  0.08737381  0.32012982  0.49791999     0.97000
C66         C  0.08676337  0.18088098  0.49760674     0.97600
N67         N  0.43227197  0.28703210  0.00966982    -0.07500
N68         N  0.41707804  0.30988961  0.01939666    -0.63800
N69         N  0.43224299  0.21894472  0.48249100    -0.06300
N70         N  0.41592446  0.19709620  0.47216853    -0.64500
N71         N  0.43025254  0.21894629  0.01083449    -0.07000
N72         N  0.41331032  0.19740164  0.02098556    -0.64100
N73         N  0.43437600  0.28695095  0.48222306    -0.05900
N74         N  0.41945389  0.30974455  0.47192680    -0.64800
Mn75       Mn  0.45486190  0.25284174  0.03575538     1.10700
C76         C  0.41041763  0.32412540  0.49651699     0.98200
C77         C  0.40571092  0.18342821  0.49671137     0.98300
N78         N  0.01100744  0.21624355  0.43426534    -0.07100
N79         N  0.02092572  0.19467798  0.41742133    -0.62400
N80         N  0.48292303  0.28486466  0.43284273    -0.06400
N81         N  0.47296259  0.30526715  0.41464434    -0.59200
N82         N  0.01165384  0.28397697  0.43378900    -0.07700
N83         N  0.02205376  0.30528644  0.41684429    -0.62000
N84         N  0.48118143  0.21743733  0.43357961    -0.06700
N85         N  0.47043555  0.19596485  0.41701903    -0.59200
Mn86       Mn  0.03677529  0.25030722  0.45780750     1.20200
Mn87       Mn  0.45693556  0.25208564  0.45720066     1.10100
Cl88       Cl  0.99707421  0.25066195  0.49775250    -0.87100
C89         C  0.99606909  0.18139121  0.40721379     0.95200
C90         C  0.49782603  0.31747616  0.40329664     0.95000
N91         N  0.28307143  0.43817163  0.48441739    -0.07300
N92         N  0.30590640  0.42307523  0.47437522    -0.59400
N93         N  0.21371086  0.43762220  0.01016067    -0.07000
N94         N  0.19213515  0.42036141  0.01986085    -0.61600
N95         N  0.21458687  0.43647777  0.48395544    -0.06600
N96         N  0.19231833  0.42069398  0.47352069    -0.59400
N97         N  0.28213156  0.43970493  0.01052823    -0.06300
N98         N  0.30459401  0.42427049  0.02083463    -0.61900
C99         C  0.31978223  0.41364502  0.49915228     0.94900
C100        C  0.17830355  0.41071410  0.49801983     0.94700
N101        N  0.21321654  0.01389188  0.06173505    -0.07500
N102        N  0.19257006  0.02359876  0.07988895    -0.60000
N103        N  0.28079449  0.48803194  0.05972870    -0.05600
N104        N  0.30275155  0.47805867  0.07609114    -0.61300
N105        N  0.28105023  0.01590098  0.06073297    -0.07500
N106        N  0.30299473  0.02668492  0.07666540    -0.60300
N107        N  0.21277744  0.48666004  0.05957648    -0.05300
N108        N  0.19154629  0.47591139  0.07651028    -0.61300
Mn109      Mn  0.24726701  0.46230081  0.03567393     1.18400
C110        C  0.18059070  0.99868173  0.09138613     0.97000
C111        C  0.31611560  0.50283585  0.08624273     0.97600
N112        N  0.21404840  0.48541692  0.43503489    -0.07500
N113        N  0.19288103  0.47465404  0.41806070    -0.63800
N114        N  0.28142128  0.01570131  0.43520186    -0.06300
N115        N  0.30330368  0.02579788  0.41864811    -0.64500
N116        N  0.28207461  0.48722775  0.43552055    -0.07000
N117        N  0.30378907  0.47763230  0.41859536    -0.64100
N118        N  0.21310922  0.01614035  0.43465570    -0.05900
N119        N  0.19162462  0.02643308  0.41777637    -0.64800
Mn120      Mn  0.24848499  0.46106692  0.45906749     1.10700
C121        C  0.17805606  0.00181373  0.40739796     0.98200
C122        C  0.31673224  0.50261512  0.40831148     0.98300
N123        N  0.27945469  0.06436286  0.01177101    -0.07100
N124        N  0.30097499  0.08109884  0.02210737    -0.62400
N125        N  0.21329396  0.06475571  0.48446482    -0.06400
N126        N  0.19147292  0.08139480  0.47456239    -0.59200
N127        N  0.21157758  0.06302608  0.01193974    -0.07700
N128        N  0.19044713  0.08028739  0.02215568    -0.62000
N129        N  0.28155867  0.06442996  0.48429246    -0.06700
N130        N  0.30355729  0.08079555  0.47417485    -0.59200
Mn131      Mn  0.24617623  0.03995713  0.03716519     1.20200
Mn132      Mn  0.24730987  0.04098426  0.45895393     1.10100
Cl133      Cl  0.24686108  0.00094835  0.49849360    -0.87100
C134        C  0.31725446  0.09066833  0.49888236     0.95200
C135        C  0.17812395  0.09133214  0.49944350     0.95000
C136        C  0.37809687  0.36097375  0.02146996    -0.27500
C137        C  0.39047279  0.35010953  0.49667600    -0.15600
C138        C  0.38013422  0.36334701  0.47032238     0.35100
C139        C  0.35773909  0.38477603  0.47184963    -0.27000
C140        C  0.34579023  0.39371258  0.49905599    -0.16200
C141        C  0.35658892  0.38319978  0.02269423     0.36100
N142        N  0.34677522  0.39362689  0.05091235    -0.90400
H143        H  0.38642716  0.35199975  0.04203705     0.17300
H144        H  0.34915508  0.39406757  0.45154010     0.17200
N145        N  0.39181300  0.35467023  0.44208206    -0.89500
H146        H  0.36514849  0.40186249  0.06231624     0.34600
H147        H  0.33838756  0.37563971  0.06278637     0.39700
H148        H  0.41401083  0.36126795  0.44139642     0.39300
H149        H  0.38115616  0.36593511  0.42497004     0.34200
C150        C  0.35154063  0.12397477  0.47150577    -0.27500
C151        C  0.34207498  0.11223833  0.49864627    -0.15600
C152        C  0.35003079  0.12557886  0.02431391     0.35100
C153        C  0.37121611  0.14820852  0.02323482    -0.27000
C154        C  0.38501921  0.15793060  0.49660287    -0.16200
C155        C  0.37272192  0.14663501  0.47022269     0.36100
N156        N  0.38106302  0.15841848  0.44203915    -0.90400
H157        H  0.34191193  0.11612848  0.45103615     0.17300
H158        H  0.37878874  0.15783147  0.04380711     0.17200
N159        N  0.33962196  0.11552795  0.05247240    -0.89500
H160        H  0.36200755  0.16639518  0.43167027     0.34600
H161        H  0.38949686  0.14118218  0.42921151     0.39700
H162        H  0.33039290  0.13351108  0.06360969     0.39300
H163        H  0.35791534  0.10830050  0.06458180     0.34200
C164        C  0.11603993  0.35984266  0.47215742    -0.27500
C165        C  0.10851880  0.34536694  0.49857679    -0.15600
C166        C  0.12213940  0.35467272  0.52512910     0.35100
C167        C  0.14402460  0.37667499  0.52447695    -0.27000
C168        C  0.15272817  0.38998911  0.49785889    -0.16200
C169        C  0.13769266  0.38220252  0.47162658     0.36100
N170        N  0.14411448  0.39697510  0.44439216    -0.90400
H171        H  0.10527804  0.35365284  0.45167918     0.17300
H172        H  0.15479410  0.38274592  0.54498438     0.17200
N173        N  0.11445018  0.34146435  0.55286194    -0.89500
H174        H  0.14939705  0.38128704  0.92525893     0.34600
H175        H  0.15076054  0.38115130  0.42895975     0.39700
H176        H  0.10702477  0.35812945  0.56698175     0.39300
H177        H  0.13360051  0.33230342  0.56202891     0.34200
C178        C  0.12330842  0.15057804  0.02218808    -0.27500
C179        C  0.10812867  0.15602344  0.49781721    -0.15600
C180        C  0.11701579  0.14148240  0.47169069     0.35100
C181        C  0.13937033  0.12002728  0.47284419    -0.27000
C182        C  0.15306811  0.11249175  0.49965629    -0.16200
C183        C  0.14322644  0.12611714  0.52593740     0.36100
N184        N  0.16065674  0.12398825  0.05062370    -0.90400
H185        H  0.11825131  0.16278985  0.04213021     0.17300
H186        H  0.14623496  0.10948496  0.45248706     0.17200
N187        N  0.10357853  0.14838416  0.44388424    -0.89500
H188        H  0.14500827  0.11792790  0.06655323     0.34600
H189        H  0.17039380  0.14388549  0.05725322     0.39700
H190        H  0.09430893  0.12902616  0.43534893     0.39300
H191        H  0.12021963  0.15541741  0.42938810     0.34200
C192        C  0.34741185  0.47601694  0.37151654    -0.27500
C193        C  0.34081713  0.50270548  0.38588465    -0.15600
C194        C  0.35677727  0.52846722  0.37769405     0.35100
C195        C  0.37787861  0.52702137  0.35503303    -0.27000
C196        C  0.38363421  0.50049284  0.34002157    -0.16200
C197        C  0.36837807  0.47468724  0.34873311     0.36100
N198        N  0.37340894  0.44712159  0.33408565    -0.90400
H199        H  0.33567371  0.45595929  0.37740045     0.17300
H200        H  0.38965054  0.54700383  0.34893852     0.17200
N201        N  0.35235461  0.55637761  0.39188088    -0.89500
H202        H  0.35329405  0.43985167  0.32522712     0.34600
H203        H  0.38023998  0.43172125  0.34987446     0.39700
H204        H  0.36608553  0.03775734  0.42492174     0.39300
H205        H  0.34479165  0.05964408  0.40295806     0.34200
C206        C  0.12157726  0.47287590  0.35149356    -0.27500
C207        C  0.10989424  0.49982988  0.34158980    -0.15600
C208        C  0.12009205  0.52629811  0.35464611     0.35100
C209        C  0.14284330  0.02917980  0.37493783    -0.27000
C210        C  0.15310563  0.00205315  0.38596190    -0.16200
C211        C  0.13983980  0.97572585  0.37565174     0.36100
N212        N  0.14878937  0.94755481  0.38684040    -0.90400
H213        H  0.11399336  0.45228598  0.34190732     0.17300
H214        H  0.15247784  0.04968422  0.38271264     0.17200
N215        N  0.10850749  0.55432390  0.34569726    -0.89500
H216        H  0.15631547  0.93483728  0.36910976     0.34600
H217        H  0.13007894  0.93714899  0.39564276     0.39700
H218        H  0.12610217  0.56730183  0.33805411     0.39300
H219        H  0.09950408  0.56465724  0.36428111     0.34200
C220        C  0.11923409  0.47358887  0.14186906    -0.27500
C221        C  0.11309140  0.00088909  0.15907958    -0.14100
C222        C  0.12597715  0.02717683  0.14815760     0.35100
C223        C  0.14759671  0.02580317  0.12597098    -0.27000
C224        C  0.15723162  0.99865298  0.11451901    -0.16200
C225        C  0.14034909  0.47306009  0.11907875     0.36100
N226        N  0.14795770  0.44542647  0.10574052    -0.90400
H227        H  0.10949427  0.45292622  0.14912276     0.17300
H228        H  0.15708412  0.04628487  0.11791900     0.17200
N229        N  0.11758241  0.05540269  0.15966914    -0.89500
H230        H  0.12866293  0.43606266  0.09702683     0.34600
H231        H  0.15587544  0.43138604  0.12227213     0.39700
H232        H  0.10977195  0.06829581  0.14217224     0.39300
H233        H  0.13650740  0.06563109  0.16820831     0.34200
C234        C  0.35040444  0.47554785  0.11928424    -0.27500
C235        C  0.34119417  0.50264334  0.10737373    -0.15600
C236        C  0.35482147  0.02888958  0.11826823     0.35100
C237        C  0.37668771  0.02758149  0.14011265    -0.27000
C238        C  0.38697028  0.00037816  0.15082754    -0.16200
C239        C  0.37240132  0.47422191  0.14105292     0.36100
N240        N  0.38058386  0.44607345  0.15292826    -0.90400
H241        H  0.34004972  0.45513881  0.11219368     0.17300
H242        H  0.38519919  0.04809345  0.14908233     0.17200
N243        N  0.34495921  0.05709465  0.10796302    -0.89500
H244        H  0.38802708  0.43282259  0.13554077     0.34600
H245        H  0.36164857  0.43620282  0.16188551     0.39700
H246        H  0.36336417  0.06845605  0.09971878     0.39300
H247        H  0.33678944  0.06891344  0.12603952     0.34200
C248        C  0.46686340  0.14795017  0.37375527    -0.27500
C249        C  0.99571931  0.15701769  0.38529755    -0.15600
C250        C  0.02185568  0.14762866  0.37105127     0.35100
C251        C  0.02038636  0.12608023  0.34899351    -0.27000
C252        C  0.49178531  0.11307196  0.34130279    -0.16200
C253        C  0.46543414  0.12610636  0.35180393     0.36100
N254        N  0.43721617  0.11773653  0.34001088    -0.90400
H255        H  0.44647394  0.15815569  0.38109819     0.17300
H256        H  0.04072753  0.11970625  0.33804538     0.17200
N257        N  0.05001978  0.16028857  0.37829536    -0.89500
H258        H  0.42719573  0.13659096  0.33123659     0.34600
H259        H  0.42404188  0.11008011  0.35742073     0.39700
H260        H  0.05890425  0.16972786  0.35914959     0.39300
H261        H  0.06407762  0.14325851  0.38503999     0.34200
C262        C  0.02249182  0.37540218  0.34975057    -0.27500
C263        C  0.49534804  0.38588665  0.33723810    -0.15600
C264        C  0.46902853  0.37554417  0.35053507     0.35100
C265        C  0.47043767  0.35333177  0.37204789    -0.27000
C266        C  0.49764131  0.34093956  0.38052754    -0.16200
C267        C  0.02370491  0.35273975  0.37070751     0.36100
N268        N  0.05144873  0.33856020  0.37637234    -0.90400
H269        H  0.04269657  0.38147737  0.33832062     0.17300
H270        H  0.45000211  0.34580040  0.38213344     0.17200
N271        N  0.44081098  0.38743082  0.34242031    -0.89500
H272        H  0.06650985  0.35460350  0.38352486     0.34600
H273        H  0.05929283  0.32980846  0.35648850     0.39700
H274        H  0.43084845  0.39602767  0.36140518     0.39300
H275        H  0.42756956  0.37011776  0.33468113     0.34200
C276        C  0.02246846  0.35375801  0.12091335    -0.27500
C277        C  0.49561641  0.34749160  0.10646160    -0.15600
C278        C  0.46920775  0.36081030  0.11675813     0.35100
C279        C  0.47066410  0.38199061  0.13943999    -0.27000
C280        C  0.99689616  0.38674622  0.15496003    -0.16200
C281        C  0.02348185  0.37520404  0.14326086     0.36100
N282        N  0.05167816  0.38486853  0.15408314    -0.90400
H283        H  0.04313940  0.34490238  0.11265109     0.17300
H284        H  0.45029750  0.39152898  0.14767687     0.17200
N285        N  0.44095496  0.35267659  0.10454123    -0.89500
H286        H  0.06371216  0.39353548  0.13633045     0.34600
H287        H  0.06303927  0.36643907  0.16209845     0.39700
H288        H  0.44063924  0.35982107  0.08257905     0.39300
H289        H  0.42378649  0.36384207  0.11525819     0.34200
C290        C  0.46884963  0.12713111  0.14558139    -0.27500
C291        C  0.99854604  0.11121479  0.15060528    -0.15600
C292        C  0.02483192  0.12566973  0.14109793     0.35100
C293        C  0.02342899  0.14722425  0.11899542    -0.27000
C294        C  0.99648684  0.15505490  0.10572385    -0.16200
C295        C  0.46728355  0.14928293  0.12393273     0.36100
N296        N  0.43891890  0.16030288  0.11517479    -0.90400
H297        H  0.44836506  0.11894255  0.15502410     0.17300
H298        H  0.04367210  0.15853927  0.11279431     0.17200
N299        N  0.05327141  0.11965674  0.15368413    -0.89500
H300        H  0.42830045  0.16861446  0.13392550     0.34600
H301        H  0.42637592  0.14259450  0.10716764     0.39700
H302        H  0.05816480  0.09733232  0.15065990     0.39300
H303        H  0.05274805  0.12466643  0.17622205     0.34200
N304        N  0.06155950  0.48632345  0.71480494    -0.07300
N305        N  0.07772329  0.47568189  0.69304033    -0.59400
N306        N  0.05870155  0.01367795  0.78407482    -0.07000
N307        N  0.07498848  0.02364116  0.80613170    -0.61600
N308        N  0.06072975  0.48721543  0.78269836    -0.06600
N309        N  0.07562711  0.47712893  0.80560000    -0.59400
N310        N  0.06041124  0.01426263  0.71630052    -0.06300
N311        N  0.07819725  0.02488076  0.69577100    -0.61900
C312        C  0.08906436  0.00054837  0.68236213     0.94900
C313        C  0.08505344  0.50185336  0.81950028     0.94700
N314        N  0.47920473  0.06411589  0.77994174    -0.07500
N315        N  0.46817030  0.08101870  0.80094712    -0.60000
N316        N  0.01171717  0.06354009  0.71533155    -0.05600
N317        N  0.02272186  0.08107939  0.69474885    -0.61300
N318        N  0.48064062  0.06353225  0.71216398    -0.07500
N319        N  0.47069637  0.08037203  0.69052387    -0.60300
N320        N  0.00979318  0.06280146  0.78312745    -0.05300
N321        N  0.01950182  0.07930568  0.80506411    -0.61300
Mn322      Mn  0.03579219  0.03917207  0.74975113     1.18400
C323        C  0.49241226  0.09205773  0.81460764     0.97000
C324        C  0.99857324  0.09203111  0.68092807     0.97600
N325        N  0.01196953  0.43829921  0.78276918    -0.07500
N326        N  0.02181994  0.42188552  0.80472623    -0.63800
N327        N  0.48522813  0.43731704  0.71325442    -0.06300
N328        N  0.47574715  0.42040671  0.69151986    -0.64500
N329        N  0.01248165  0.43730945  0.71494514    -0.07000
N330        N  0.02290186  0.42009603  0.69388785    -0.64100
N331        N  0.48333284  0.43760634  0.78097146    -0.05900
N332        N  0.47262139  0.42044419  0.80193207    -0.64800
Mn333      Mn  0.03745411  0.46163138  0.74879710     1.10700
C334        C  0.49697712  0.41029770  0.81597248     0.98200
C335        C  0.99836663  0.40950774  0.68037083     0.98300
N336        N  0.43307230  0.01280163  0.71205944    -0.07100
N337        N  0.41735450  0.02237255  0.68951707    -0.62400
N338        N  0.43365257  0.48595393  0.77966053    -0.06400
N339        N  0.41678498  0.47572511  0.80122071    -0.59200
N340        N  0.43177327  0.01359583  0.78010074    -0.07700
N341        N  0.41567370  0.02356651  0.80226242    -0.62000
N342        N  0.43592066  0.48599225  0.71154092    -0.06700
N343        N  0.42016471  0.47584080  0.68914946    -0.59200
Mn344      Mn  0.45536148  0.03914420  0.74600653     1.20200
Mn345      Mn  0.45879337  0.46101673  0.74633458     1.10100
Cl346      Cl  0.99585122  0.99952826  0.74851778    -0.87100
C347        C  0.40823298  0.99734966  0.67595773     0.95200
C348        C  0.40635999  0.50039957  0.81450805     0.95000
N349        N  0.48092381  0.21791935  0.56085367    -0.07300
N350        N  0.47010005  0.19684609  0.57788950    -0.59400
N351        N  0.01185915  0.28504204  0.56134107    -0.07000
N352        N  0.02198747  0.30648838  0.57836557    -0.61600
N353        N  0.48293392  0.28571118  0.56061647    -0.06600
N354        N  0.47321925  0.30741668  0.57738714    -0.59400
N355        N  0.01174519  0.21708989  0.56184985    -0.06300
N356        N  0.02190292  0.19613820  0.57941531    -0.61900
C357        C  0.99712234  0.18326757  0.59038071     0.94900
C358        C  0.49819410  0.32025415  0.58782059     0.94700
N359        N  0.06052567  0.28473060  0.98164021    -0.07500
N360        N  0.07745319  0.30622865  0.97138801    -0.60000
N361        N  0.06056022  0.21647989  0.51216133    -0.05600
N362        N  0.07692565  0.19460622  0.52230570    -0.61300
N363        N  0.05981771  0.21670540  0.98130221    -0.07500
N364        N  0.07636417  0.19502940  0.97099881    -0.60300
N365        N  0.06080705  0.28448083  0.51191097    -0.05300
N366        N  0.07706784  0.30630218  0.52231987    -0.61300
Mn367      Mn  0.03696379  0.25075037  0.53742117     1.18400
C368        C  0.08751157  0.31993812  0.99600384     0.97000
C369        C  0.08667879  0.18158381  0.99561817     0.97600
N370        N  0.43439160  0.28711082  0.51125263    -0.07500
N371        N  0.41954464  0.31006398  0.52128542    -0.63800
N372        N  0.43046042  0.21874750  0.98179884    -0.06300
N373        N  0.41377205  0.19712733  0.97161434    -0.64500
N374        N  0.43211014  0.21888270  0.51151168    -0.07000
N375        N  0.41566631  0.19690008  0.52153264    -0.64100
N376        N  0.43249403  0.28664293  0.98063664    -0.05900
N377        N  0.41738246  0.30920107  0.97003747    -0.64800
Mn378      Mn  0.45680265  0.25241382  0.53672548     1.10700
C379        C  0.40795114  0.32364157  0.99446100     0.98200
C380        C  0.40324891  0.18386464  0.99623332     0.98300
N381        N  0.01060199  0.21733902  0.93239043    -0.07100
N382        N  0.02073959  0.19576867  0.91573918    -0.62400
N383        N  0.48171526  0.28405636  0.93178325    -0.06400
N384        N  0.47215421  0.30552144  0.91463461    -0.59200
N385        N  0.01144371  0.28497422  0.93288693    -0.07700
N386        N  0.02204224  0.30691467  0.91689604    -0.62000
N387        N  0.47970503  0.21642893  0.93309968    -0.06700
N388        N  0.46920240  0.19512991  0.91612724    -0.59200
Mn389      Mn  0.03625331  0.25089323  0.95639108     1.20200
Mn390      Mn  0.45535151  0.25148297  0.95618075     1.10100
Cl391      Cl  0.99627684  0.25093684  0.99598050    -0.87100
C392        C  0.99602083  0.18248348  0.90531202     0.95200
C393        C  0.49728781  0.31819306  0.90436324     0.95000
N394        N  0.28251662  0.43999977  0.98150483    -0.07300
N395        N  0.30525496  0.42473184  0.97147386    -0.59400
N396        N  0.21443360  0.43620941  0.51299004    -0.07000
N397        N  0.19204655  0.42019935  0.52288714    -0.61600
N398        N  0.21425636  0.43773110  0.98113363    -0.06600
N399        N  0.19316439  0.42055403  0.97050273    -0.59400
N400        N  0.28283517  0.43799164  0.51343507    -0.06300
N401        N  0.30545321  0.42277942  0.52373800    -0.61900
C402        C  0.31896019  0.41509792  0.99627310     0.94900
C403        C  0.17943957  0.40982854  0.99484232     0.94700
N404        N  0.21342687  0.01519524  0.56293290    -0.07500
N405        N  0.19275360  0.02521097  0.58095622    -0.60000
N406        N  0.28156057  0.48658461  0.56245196    -0.05600
N407        N  0.30407726  0.47704619  0.57838447    -0.61300
N408        N  0.28143438  0.01481783  0.56151036    -0.07500
N409        N  0.30413987  0.02476606  0.57687894    -0.60300
N410        N  0.21353858  0.48466820  0.56219757    -0.05300
N411        N  0.19206029  0.47369110  0.57861190    -0.61300
Mn412      Mn  0.24811171  0.46057808  0.53848963     1.18400
C413        C  0.17953347  0.00041707  0.59140672     0.97000
C414        C  0.31693385  0.50213203  0.58846527     0.97600
N415        N  0.21310491  0.48737783  0.93312494    -0.07500
N416        N  0.19071008  0.47656842  0.91789386    -0.63800
N417        N  0.28063703  0.01520196  0.93386428    -0.06300
N418        N  0.30243021  0.02579715  0.91755802    -0.64500
N419        N  0.28117013  0.48904972  0.93259534    -0.07000
N420        N  0.30298757  0.47935123  0.91587003    -0.64100
N421        N  0.21235029  0.01329156  0.93432971    -0.05900
N422        N  0.18996885  0.02264009  0.91812713    -0.64800
Mn423      Mn  0.24783427  0.46286985  0.95636710     1.10700
C424        C  0.17710344  0.99745840  0.90828316     0.98200
C425        C  0.31596413  0.50425270  0.90547724     0.98300
N426        N  0.28156995  0.06428057  0.51331757    -0.07100
N427        N  0.30358083  0.08056241  0.52353108    -0.62400
N428        N  0.21148072  0.06303693  0.98288677    -0.06400
N429        N  0.19018524  0.08025515  0.97279060    -0.59200
N430        N  0.21340386  0.06447936  0.51351951    -0.07700
N431        N  0.19173370  0.08092855  0.52393422    -0.62000
N432        N  0.27964334  0.06435713  0.98274410    -0.06700
N433        N  0.30138810  0.08115314  0.97273801    -0.59200
Mn434      Mn  0.24738450  0.04041014  0.53851462     1.20200
Mn435      Mn  0.24597986  0.03967857  0.95767635     1.10100
Cl436      Cl  0.24710032  0.00016053  0.99765910    -0.87100
C437        C  0.31459595  0.09141472  0.99758941     0.95200
C438        C  0.17715716  0.09086908  0.99755392     0.95000
C439        C  0.38001072  0.36061408  0.52392453    -0.27500
C440        C  0.38800329  0.34964231  0.99434286    -0.15600
C441        C  0.37741246  0.36239865  0.96792235     0.35100
C442        C  0.35585350  0.38462109  0.96913734    -0.27000
C443        C  0.34449908  0.39453708  0.99626363    -0.16200
C444        C  0.35794142  0.38223799  0.52537720     0.36100
N445        N  0.34757637  0.39183991  0.55369405    -0.90400
H446        H  0.38825770  0.35133879  0.54439165     0.17300
H447        H  0.34737024  0.39349216  0.94858996     0.17200
N448        N  0.38794455  0.35258744  0.93974657    -0.89500
H449        H  0.36560645  0.40037605  0.56542154     0.34600
H450        H  0.33960260  0.37340303  0.56515201     0.39700
H451        H  0.39702226  0.37075470  0.92867413     0.39300
H452        H  0.36980870  0.34502835  0.92753257     0.34200
C453        C  0.35100407  0.12284733  0.97080857    -0.27500
C454        C  0.33912489  0.11321350  0.99780175    -0.15600
C455        C  0.35541984  0.12256843  0.52488955     0.35100
C456        C  0.37660107  0.14523582  0.52362557    -0.27000
C457        C  0.38224097  0.15865912  0.99619572    -0.16200
C458        C  0.37247681  0.14523041  0.96974928     0.36100
N459        N  0.38408370  0.15421746  0.94168472    -0.90400
H460        H  0.34334880  0.11327492  0.95024137     0.17300
H461        H  0.38616441  0.15318298  0.54409018     0.17200
N462        N  0.34758078  0.11033468  0.55298165    -0.89500
H463        H  0.36643638  0.16127542  0.92853555     0.34600
H464        H  0.39359728  0.13577874  0.93157524     0.39700
H465        H  0.33941230  0.12737204  0.56623263     0.39300
H466        H  0.36697420  0.10247967  0.56275359     0.34200
C467        C  0.12560013  0.34990373  0.96968378    -0.27500
C468        C  0.10941057  0.34450083  0.99562955    -0.15600
C469        C  0.11515599  0.36202234  0.02076919     0.35100
C470        C  0.13784479  0.38334137  0.01997996    -0.27000
C471        C  0.15470728  0.38806326  0.99429431    -0.16200
C472        C  0.14801847  0.37140674  0.96875332     0.36100
N473        N  0.16435312  0.37560293  0.94193779    -0.90400
H474        H  0.12137300  0.33689532  0.95004271     0.17300
H475        H  0.14219672  0.39631070  0.03962176     0.17200
N476        N  0.09778003  0.35861899  0.04703421    -0.89500
H477        H  0.12451681  0.40657760  0.43679685     0.34600
H478        H  0.17413110  0.35550170  0.93622065     0.39700
H479        H  0.08777628  0.37888288  0.05169427     0.39300
H480        H  0.11205687  0.35353044  0.06447612     0.34200
C481        C  0.12094843  0.14757430  0.52475784    -0.27500
C482        C  0.10847506  0.15709609  0.99576495    -0.15600
C483        C  0.11559183  0.14086769  0.97009675     0.35100
C484        C  0.13777299  0.11917210  0.97121864    -0.27000
C485        C  0.15301177  0.11309315  0.99758808    -0.16200
C486        C  0.14545200  0.12899614  0.02332798     0.36100
N487        N  0.15616500  0.11887732  0.55389180    -0.90400
H488        H  0.11425166  0.15820559  0.54512084     0.17300
H489        H  0.14307508  0.10706566  0.95127051     0.17200
N490        N  0.10028328  0.14606970  0.94289359    -0.89500
H491        H  0.13933095  0.11136612  0.56787833     0.34600
H492        H  0.16503827  0.13819408  0.56299023     0.39700
H493        H  0.09032639  0.12626719  0.93632389     0.39300
H494        H  0.11590554  0.15194333  0.92686316     0.34200
C495        C  0.35134389  0.47670414  0.87380946    -0.27500
C496        C  0.34074207  0.50413360  0.88380170    -0.15600
C497        C  0.35353943  0.53026409  0.87206735     0.35100
C498        C  0.37530733  0.52828079  0.85018803    -0.27000
C499        C  0.38493397  0.50086868  0.83936622    -0.16200
C500        C  0.37317792  0.47482227  0.85185727     0.36100
N501        N  0.38299526  0.44635089  0.84223922    -0.90400
H502        H  0.34232175  0.45635781  0.88268883     0.17300
H503        H  0.38437467  0.54857797  0.84123016     0.17200
N504        N  0.34496696  0.55918098  0.88152297    -0.89500
H505        H  0.36462388  0.43464372  0.83440285     0.34600
H506        H  0.39136609  0.43506536  0.86056251     0.39700
H507        H  0.34816594  0.05870948  0.90649280     0.39300
H508        H  0.32253956  0.05938304  0.87861249     0.34200
C509        C  0.11695717  0.47463159  0.85484762    -0.27500
C510        C  0.10503444  0.50163041  0.84539575    -0.15600
C511        C  0.11382971  0.52786688  0.85973708     0.35100
C512        C  0.13660166  0.02312872  0.88136506    -0.27000
C513        C  0.15181720  0.99679110  0.88739248    -0.16200
C514        C  0.14341871  0.97078129  0.87234491     0.36100
N515        N  0.15821106  0.94337522  0.87779769    -0.90400
H516        H  0.10986040  0.45412300  0.84472971     0.17300
H517        H  0.14240665  0.04324077  0.89298249     0.17200
N518        N  0.10034953  0.55555786  0.85257506    -0.89500
H519        H  0.16745737  0.93610075  0.85791912     0.34600
H520        H  0.14237311  0.92786523  0.88447287     0.39700
H521        H  0.11694622  0.57004421  0.84545380     0.39300
H522        H  0.09104854  0.56421546  0.87186466     0.34200
C523        C  0.12272006  0.47257873  0.64692512    -0.27500
C524        C  0.11164836  0.00112511  0.65857307    -0.14100
C525        C  0.12846214  0.02674124  0.65234449     0.35100
C526        C  0.15013752  0.02607303  0.63015609    -0.27000
C527        C  0.15564490  0.00026005  0.61393283    -0.16200
C528        C  0.14467025  0.47128698  0.62511633     0.36100
N529        N  0.15899819  0.44371960  0.61924824    -0.90400
H530        H  0.11726118  0.45261066  0.65898068     0.17300
H531        H  0.16304866  0.04584466  0.62598795     0.17200
N532        N  0.12417395  0.05337159  0.66885299    -0.89500
H533        H  0.14282433  0.42842365  0.61291970     0.34600
H534        H  0.16862836  0.43625827  0.63887357     0.39700
H535        H  0.11864000  0.07020551  0.65405073     0.39300
H536        H  0.14425509  0.05898611  0.67889991     0.34200
C537        C  0.35949932  0.47701443  0.61282546    -0.27500
C538        C  0.34257424  0.50273057  0.60887415    -0.15600
C539        C  0.35725192  0.02567790  0.61643231     0.35100
C540        C  0.37903677  0.02425147  0.63832777    -0.27000
C541        C  0.38782265  0.99712613  0.65042699    -0.16200
C542        C  0.38256688  0.47603420  0.63360002     0.36100
N543        N  0.39961593  0.44959475  0.63680121    -0.90400
H544        H  0.35467025  0.45742352  0.59994243     0.17300
H545        H  0.38859462  0.04471000  0.64633019     0.17200
N546        N  0.34892829  0.05388613  0.60488810    -0.89500
H547        H  0.40920950  0.44471121  0.61635506     0.34600
H548        H  0.38516982  0.43235320  0.64224813     0.39700
H549        H  0.36800422  0.06384432  0.59637939     0.39300
H550        H  0.34134010  0.06687509  0.62239869     0.34200
C551        C  0.46639355  0.14636813  0.87340528    -0.27500
C552        C  0.99600863  0.15744346  0.88429794    -0.15600
C553        C  0.02243420  0.14710145  0.87129134     0.35100
C554        C  0.02132218  0.12437063  0.85044386    -0.27000
C555        C  0.49188427  0.11367269  0.83914004    -0.16200
C556        C  0.46529058  0.12484242  0.85111622     0.36100
N557        N  0.43711253  0.11471704  0.84066129    -0.90400
H558        H  0.44578069  0.15497715  0.88207089     0.17300
H559        H  0.04184561  0.11721338  0.84035459     0.17200
N560        N  0.05052025  0.15989936  0.87860615    -0.89500
H561        H  0.42537521  0.13295394  0.83275166     0.34600
H562        H  0.42542714  0.10593199  0.85858831     0.39700
H563        H  0.06001462  0.16820551  0.85922691     0.39300
H564        H  0.06421051  0.14313271  0.88662708     0.34200
C565        C  0.02340863  0.38183222  0.85527229    -0.27500
C566        C  0.49644989  0.38807006  0.83995117    -0.15600
C567        C  0.47006592  0.37346107  0.84824447     0.35100
C568        C  0.47095422  0.35107424  0.86951129    -0.27000
C569        C  0.49764388  0.34288693  0.88301208    -0.16200
C570        C  0.02433993  0.35975827  0.87694596     0.36100
N571        N  0.05231720  0.35129032  0.88915828    -0.90400
H572        H  0.04404068  0.39163823  0.84789520     0.17300
H573        H  0.45052756  0.33978313  0.87512644     0.17200
N574        N  0.44228943  0.38082601  0.83491250    -0.89500
H575        H  0.06207860  0.36998458  0.89862333     0.34600
H576        H  0.06591779  0.34417764  0.87188360     0.39700
H577        H  0.42769254  0.38721371  0.85165083     0.39300
H578        H  0.43373700  0.36182898  0.82490286     0.34200
C579        C  0.02407626  0.35280484  0.62358181    -0.27500
C580        C  0.49871980  0.34482021  0.60953763    -0.15600
C581        C  0.47239125  0.35722951  0.62083320     0.35100
C582        C  0.47385787  0.37891996  0.64281038    -0.27000
C583        C  0.99863051  0.38767330  0.65580521    -0.16200
C584        C  0.02507315  0.37424716  0.64592880     0.36100
N585        N  0.05305267  0.38180642  0.65877905    -0.90400
H586        H  0.04458841  0.34251968  0.61670800     0.17300
H587        H  0.45330777  0.38775156  0.65139367     0.17200
N588        N  0.44396600  0.34773544  0.61044895    -0.89500
H589        H  0.06696768  0.38946714  0.64195369     0.34600
H590        H  0.06236600  0.36260174  0.66757301     0.39700
H591        H  0.43282722  0.36613621  0.60205527     0.39300
H592        H  0.43192676  0.33969125  0.62848671     0.34200
C593        C  0.46944544  0.12891598  0.64781987    -0.27500
C594        C  0.99915778  0.11464529  0.65699370    -0.15600
C595        C  0.02554750  0.12428142  0.64283362     0.35100
C596        C  0.02422019  0.14626103  0.62104547    -0.27000
C597        C  0.99722048  0.15922887  0.61279874    -0.16200
C598        C  0.46839342  0.15136213  0.62650606     0.36100
N599        N  0.44145266  0.16746881  0.62243004    -0.90400
H600        H  0.44964242  0.12423928  0.66052917     0.17300
H601        H  0.04464128  0.15334290  0.61060991     0.17200
N602        N  0.05402743  0.11230286  0.64979498    -0.89500
H603        H  0.43568481  0.17709260  0.64261284     0.34600
H604        H  0.42480059  0.15246681  0.61665679     0.39700
H605        H  0.05348434  0.08947226  0.64644317     0.39300
H606        H  0.05889877  0.11684812  0.67189380     0.34200
N607        N  0.06065514  0.98688869  0.21580192    -0.07300
N608        N  0.07901260  0.97655361  0.19560382    -0.59400
N609        N  0.06056724  0.51395627  0.28228771    -0.07000
N610        N  0.07759444  0.52426762  0.30360182    -0.61600
N611        N  0.05862591  0.98836935  0.28357052    -0.06600
N612        N  0.07556441  0.97874963  0.30525766    -0.59400
N613        N  0.06134157  0.51367262  0.21458351    -0.06300
N614        N  0.07856006  0.52408917  0.19349394    -0.61900
C615        C  0.08917144  0.49967472  0.18004611     0.94900
C616        C  0.08582897  0.00374473  0.31812993     0.94700
N617        N  0.48095964  0.56443738  0.28088429    -0.07500
N618        N  0.47020110  0.58032801  0.30279652    -0.60000
N619        N  0.01261909  0.56275018  0.21354577    -0.05600
N620        N  0.02340437  0.57974592  0.19241636    -0.61300
N621        N  0.48226675  0.56451941  0.21289231    -0.07500
N622        N  0.47230643  0.58050206  0.19065968    -0.60300
N623        N  0.01145198  0.56286246  0.28145649    -0.05300
N624        N  0.02149628  0.57877362  0.30369770    -0.61300
Mn625      Mn  0.03707528  0.53895302  0.24799643     1.18400
C626        C  0.49456994  0.59015780  0.31714985     0.97000
C627        C  0.99909325  0.59040183  0.17865178     0.97600
N628        N  0.00950897  0.93922209  0.28335102    -0.07500
N629        N  0.01915865  0.92263852  0.30526089    -0.63800
N630        N  0.48297176  0.93767733  0.21287517    -0.06300
N631        N  0.47381468  0.92230253  0.18981147    -0.64500
N632        N  0.01117392  0.93729669  0.21577305    -0.07000
N633        N  0.02181752  0.91923463  0.19555032    -0.64100
N634        N  0.48054115  0.93707305  0.28123315    -0.05900
N635        N  0.46986835  0.92012212  0.30248931    -0.64800
Mn636      Mn  0.03562816  0.96229682  0.24959188     1.10700
C637        C  0.49427940  0.91046126  0.31688970     0.98200
C638        C  0.99735536  0.90813922  0.18228022     0.98300
N639        N  0.43319743  0.51548332  0.21184236    -0.07100
N640        N  0.41686478  0.52546832  0.18983368    -0.62400
N641        N  0.43079267  0.98569450  0.27958731    -0.06400
N642        N  0.41347576  0.97521711  0.30063397    -0.59200
N643        N  0.43189852  0.51535390  0.27997034    -0.07700
N644        N  0.41511369  0.52534798  0.30164996    -0.62000
N645        N  0.43338398  0.98595515  0.21193306    -0.06700
N646        N  0.41768596  0.97566061  0.18966410    -0.59200
Mn647      Mn  0.45639554  0.54068346  0.24638196     1.20200
Mn648      Mn  0.45620923  0.96083320  0.24640103     1.10100
Cl649      Cl  0.99677396  0.49964942  0.24767774    -0.87100
C650        C  0.40701768  0.50064394  0.17629163     0.95200
C651        C  0.40286398  0.99973027  0.31399333     0.95000
N652        N  0.48044534  0.71778452  0.06107422    -0.07300
N653        N  0.46958715  0.69577788  0.07696671    -0.59400
N654        N  0.01026422  0.78498817  0.06266649    -0.07000
N655        N  0.02034866  0.80589632  0.08028612    -0.61600
N656        N  0.48239304  0.78626484  0.06114280    -0.06600
N657        N  0.47263885  0.80918090  0.07632151    -0.59400
N658        N  0.01037996  0.71739872  0.06238981    -0.06300
N659        N  0.02063063  0.69597602  0.07922867    -0.61900
C660        C  0.99594254  0.68262785  0.08969565     0.94900
C661        C  0.49761092  0.82253643  0.08620873     0.94700
N662        N  0.06072566  0.78370050  0.48195123    -0.07500
N663        N  0.07812653  0.80517868  0.47243570    -0.60000
N664        N  0.05988540  0.71750068  0.01336747    -0.05600
N665        N  0.07626108  0.69538565  0.02301352    -0.61300
N666        N  0.05958584  0.71559965  0.48141842    -0.07500
N667        N  0.07545009  0.69337928  0.47123067    -0.60300
N668        N  0.05994366  0.78529157  0.01435428    -0.05300
N669        N  0.07747350  0.80604925  0.02497388    -0.61300
Mn670      Mn  0.03577290  0.75124352  0.03887282     1.18400
C671        C  0.08819791  0.81795894  0.49757972     0.97000
C672        C  0.08463686  0.67911464  0.49584726     0.97600
N673        N  0.43457312  0.78765220  0.01106261    -0.07500
N674        N  0.41974940  0.81081472  0.02071675    -0.63800
N675        N  0.43319509  0.71589312  0.48267307    -0.06300
N676        N  0.41719867  0.69361945  0.47275970    -0.64500
N677        N  0.43222626  0.71940666  0.01100828    -0.07000
N678        N  0.41528113  0.69771216  0.02074400    -0.64100
N679        N  0.43258619  0.78375547  0.48145077    -0.05900
N680        N  0.41525573  0.80470569  0.47096474    -0.64800
Mn681      Mn  0.45656787  0.75276989  0.03687500     1.10700
C682        C  0.40466815  0.81821419  0.49545740     0.98200
C683        C  0.40728687  0.68017874  0.49756916     0.98300
N684        N  0.01147323  0.71643770  0.43195858    -0.07100
N685        N  0.02203587  0.69460024  0.41589787    -0.62400
N686        N  0.48215249  0.78317693  0.43253075    -0.06400
N687        N  0.47195064  0.80506647  0.41623175    -0.59200
N688        N  0.01193881  0.78430469  0.43202710    -0.07700
N689        N  0.02221192  0.80628380  0.41576355    -0.62000
N690        N  0.48224624  0.71508228  0.43410776    -0.06700
N691        N  0.47198528  0.69263775  0.41859228    -0.59200
Mn692      Mn  0.03667074  0.75014615  0.45612014     1.20200
Mn693      Mn  0.45685525  0.74953581  0.45692685     1.10100
Cl694      Cl  0.99614562  0.75044600  0.49527816    -0.87100
C695        C  0.99759926  0.68077337  0.40554878     0.95200
C696        C  0.49668447  0.81874060  0.40619286     0.95000
N697        N  0.28017251  0.93694886  0.48364898    -0.07300
N698        N  0.30118775  0.91952179  0.47344981    -0.59400
N699        N  0.21526732  0.93571728  0.01280601    -0.07000
N700        N  0.19395812  0.91860670  0.02311643    -0.61600
N701        N  0.21228204  0.93771135  0.48362796    -0.06600
N702        N  0.19094648  0.92069804  0.47326231    -0.59400
N703        N  0.28345062  0.93811125  0.01218036    -0.06300
N704        N  0.30662734  0.92352519  0.02221581    -0.61900
C705        C  0.31422006  0.90873982  0.49812448     0.94900
C706        C  0.17757928  0.90997713  0.49779447     0.94700
N707        N  0.21240365  0.51569072  0.05994111    -0.07500
N708        N  0.19085086  0.52525105  0.07713670    -0.60000
N709        N  0.28185104  0.98691238  0.06070910    -0.05600
N710        N  0.30430588  0.97733119  0.07653723    -0.61300
N711        N  0.28053531  0.51705035  0.05983845    -0.07500
N712        N  0.30230555  0.52741231  0.07631884    -0.60300
N713        N  0.21408452  0.98486477  0.06207049    -0.05300
N714        N  0.19398868  0.97427773  0.08048193    -0.61300
Mn715      Mn  0.24858722  0.96064330  0.03761285     1.18400
C716        C  0.17787843  0.50019016  0.08725258     0.97000
C717        C  0.31740701  0.00235014  0.08629869     0.97600
N718        N  0.21290372  0.98711178  0.43459907    -0.07500
N719        N  0.19130119  0.97709592  0.41771640    -0.63800
N720        N  0.28146597  0.51624324  0.43559287    -0.06300
N721        N  0.30281132  0.52693025  0.41871377    -0.64500
N722        N  0.28105481  0.98666549  0.43497609    -0.07000
N723        N  0.30256453  0.97644121  0.41813996    -0.64100
N724        N  0.21326221  0.51443426  0.43511671    -0.05900
N725        N  0.19150241  0.52397775  0.41818346    -0.64800
Mn726      Mn  0.24659198  0.96149891  0.45853270     1.10700
C727        C  0.17886623  0.49891601  0.40770229     0.98200
C728        C  0.31647532  0.00107313  0.40829621     0.98300
N729        N  0.27980446  0.56642125  0.01096550    -0.07100
N730        N  0.30139901  0.58310477  0.02130357    -0.62400
N731        N  0.21166556  0.56330152  0.48452651    -0.06400
N732        N  0.18943548  0.57916604  0.47428076    -0.59200
N733        N  0.21182992  0.56514842  0.01128033    -0.07700
N734        N  0.19006017  0.58134015  0.02185129    -0.62000
N735        N  0.28003295  0.56481826  0.48506614    -0.06700
N736        N  0.30231302  0.58096091  0.47522407    -0.59200
Mn737      Mn  0.24614206  0.54176864  0.03618457     1.20200
Mn738      Mn  0.24658266  0.54047017  0.45938227     1.10100
Cl739      Cl  0.24727521  0.50055351  0.49894455    -0.87100
C740        C  0.31573055  0.59076504  0.50012088     0.95200
C741        C  0.17535383  0.58873721  0.49889870     0.95000
C742        C  0.38331737  0.86410081  0.02214857    -0.27500
C743        C  0.38249274  0.84232498  0.49545712    -0.15600
C744        C  0.36745868  0.85097255  0.46954181     0.35100
C745        C  0.34571892  0.87295545  0.47095792    -0.27000
C746        C  0.33830887  0.88655442  0.49781629    -0.16200
C747        C  0.36149001  0.88604530  0.02329226     0.36100
N748        N  0.35368438  0.89866536  0.05122851    -0.90400
H749        H  0.39322135  0.85667785  0.04263886     0.17300
H750        H  0.33422215  0.87898739  0.45084766     0.17200
N751        N  0.37362611  0.83716939  0.44176197    -0.89500
H752        H  0.37271503  0.90812071  0.06040238     0.34600
H753        H  0.34666952  0.88161725  0.06518526     0.39700
H754        H  0.38019628  0.85355917  0.42683944     0.39300
H755        H  0.35401050  0.82769782  0.43391857     0.34200
C756        C  0.35345355  0.62029617  0.47307718    -0.27500
C757        C  0.34131456  0.61135680  0.50021365    -0.15600
C758        C  0.35014836  0.62806406  0.02346342     0.35100
C759        C  0.37212397  0.64990275  0.02245471    -0.27000
C760        C  0.38625999  0.65498219  0.49795843    -0.16200
C761        C  0.37574861  0.64182440  0.47169027     0.36100
N762        N  0.38723011  0.65042734  0.44345208    -0.90400
H763        H  0.34521868  0.61100568  0.45260456     0.17300
H764        H  0.37925601  0.65987967  0.04301345     0.17200
N765        N  0.33817203  0.61955565  0.05151260    -0.89500
H766        H  0.36965152  0.65817271  0.43060751     0.34600
H767        H  0.39587074  0.63166342  0.43315472     0.39700
H768        H  0.32924917  0.63831712  0.06154072     0.39300
H769        H  0.35558489  0.61201966  0.06471080     0.34200
C770        C  0.11727704  0.85704498  0.47194725    -0.27500
C771        C  0.10989471  0.84257865  0.49836950    -0.15600
C772        C  0.12388094  0.85149806  0.52483106     0.35100
C773        C  0.14539795  0.87386908  0.52417685    -0.27000
C774        C  0.15333687  0.88780779  0.49761285    -0.16200
C775        C  0.13860720  0.87959522  0.47135680     0.36100
N776        N  0.14487759  0.89422440  0.44401412    -0.90400
H777        H  0.10645810  0.85087668  0.45148992     0.17300
H778        H  0.15626595  0.87996257  0.54462605     0.17200
N779        N  0.11679018  0.83767662  0.55242374    -0.89500
H780        H  0.13575338  0.89416956  0.93262106     0.34600
H781        H  0.15190052  0.87837871  0.42877433     0.39700
H782        H  0.10940283  0.85399878  0.56698138     0.39300
H783        H  0.13618451  0.82858943  0.56110418     0.34200
C784        C  0.11714546  0.64527352  0.02405316    -0.27500
C785        C  0.10534358  0.65357859  0.49600443    -0.15600
C786        C  0.11756972  0.64196590  0.46973034     0.35100
C787        C  0.13963796  0.62024013  0.47124006    -0.27000
C788        C  0.14978943  0.60940887  0.49849427    -0.16200
C789        C  0.13611016  0.61952601  0.52465769     0.36100
N790        N  0.14837250  0.61177112  0.05259436    -0.90400
H791        H  0.10829047  0.65325004  0.04481116     0.17300
H792        H  0.14930004  0.61231780  0.45082406     0.17200
N793        N  0.10808603  0.65235153  0.44138890    -0.89500
H794        H  0.12990936  0.60293381  0.06342381     0.34600
H795        H  0.15643640  0.62933479  0.06526139     0.39700
H796        H  0.10007481  0.63427902  0.42942223     0.39300
H797        H  0.12654153  0.66077859  0.43023082     0.34200
C798        C  0.33999352  0.97748020  0.36500037    -0.27500
C799        C  0.33996098  0.00075500  0.38546437    -0.15600
C800        C  0.36157844  0.02333185  0.38281564     0.35100
C801        C  0.38194944  0.02248637  0.35946949    -0.27000
C802        C  0.38148983  0.99946108  0.33872267    -0.16200
C803        C  0.36028771  0.97678017  0.34161077     0.36100
N804        N  0.35844159  0.95359395  0.32017556    -0.90400
H805        H  0.32350801  0.96011142  0.36652642     0.17300
H806        H  0.39837361  0.03989125  0.35763726     0.17200
N807        N  0.36398825  0.04688475  0.40380013    -0.89500
H808        H  0.33727520  0.95404214  0.31083123     0.34600
H809        H  0.36092468  0.93344190  0.33116444     0.39700
H810        H  0.35562811  0.55379309  0.41460670     0.39300
H811        H  0.33073879  0.56345542  0.38789979     0.34200
C812        C  0.11759984  0.97695633  0.35408812    -0.27500
C813        C  0.10794321  0.00400007  0.34242798    -0.15600
C814        C  0.12045751  0.03040612  0.35343866     0.35100
C815        C  0.14203041  0.52533658  0.37654917    -0.27000
C816        C  0.15429488  0.49844396  0.38588768    -0.16200
C817        C  0.14357793  0.47192053  0.37335745     0.36100
N818        N  0.15514121  0.44389929  0.38231560    -0.90400
H819        H  0.10809093  0.95641778  0.34624101     0.17300
H820        H  0.14974716  0.54594920  0.38598145     0.17200
N821        N  0.11085632  0.05856600  0.34273646    -0.89500
H822        H  0.16411437  0.43356017  0.36371643     0.34600
H823        H  0.13748344  0.43096578  0.38982696     0.39700
H824        H  0.12920431  0.06957854  0.33387922     0.39300
H825        H  0.10312533  0.07082304  0.36070939     0.34200
C826        C  0.12279587  0.97370594  0.14773216    -0.27500
C827        C  0.11077337  0.50023416  0.15525861    -0.14100
C828        C  0.12348135  0.52690969  0.14497350     0.35100
C829        C  0.14471410  0.52632356  0.12239120    -0.27000
C830        C  0.15374658  0.49964041  0.10954038    -0.16200
C831        C  0.14476856  0.97233076  0.12581462     0.36100
N832        N  0.15430599  0.94409380  0.11528948    -0.90400
H833        H  0.11341442  0.95324920  0.15596987     0.17300
H834        H  0.15449972  0.54700840  0.11525679     0.17200
N835        N  0.11529754  0.55475346  0.15751566    -0.89500
H836        H  0.13587472  0.93293451  0.10683536     0.34600
H837        H  0.16230952  0.93204681  0.13329505     0.39700
H838        H  0.10720022  0.56815741  0.14054847     0.39300
H839        H  0.13436784  0.56474185  0.16602432     0.34200
C840        C  0.35408440  0.97532779  0.11658625    -0.27500
C841        C  0.34270537  0.00249888  0.10694612    -0.15600
C842        C  0.35543098  0.52881303  0.11668509     0.35100
C843        C  0.37741463  0.52751650  0.13852997    -0.27000
C844        C  0.38570022  0.50053128  0.15136900    -0.16200
C845        C  0.37608199  0.97401094  0.13826420     0.36100
N846        N  0.38686896  0.94579007  0.14761362    -0.90400
H847        H  0.34549114  0.95479452  0.10774256     0.17300
H848        H  0.38770021  0.54791101  0.14575866     0.17200
N849        N  0.34769295  0.55681099  0.10420244    -0.89500
H850        H  0.39548851  0.93491098  0.12915609     0.34600
H851        H  0.36894269  0.93344571  0.15552667     0.39700
H852        H  0.36677459  0.56601930  0.09486003     0.39300
H853        H  0.34073183  0.57064534  0.12132326     0.34200
C854        C  0.46907550  0.64460224  0.37587537    -0.27500
C855        C  0.99813669  0.65543948  0.38478463    -0.15600
C856        C  0.02433889  0.64696081  0.37004633     0.35100
C857        C  0.02340173  0.62445886  0.34890079    -0.27000
C858        C  0.49420060  0.61050055  0.34279481    -0.16200
C859        C  0.46781276  0.62344743  0.35330429     0.36100
N860        N  0.43970842  0.61589762  0.34071281    -0.90400
H861        H  0.44864330  0.65484612  0.38304118     0.17300
H862        H  0.04359983  0.61897294  0.33721670     0.17200
N863        N  0.05189357  0.66163290  0.37569910    -0.89500
H864        H  0.43013497  0.63517670  0.33237336     0.34600
H865        H  0.42608414  0.60785914  0.35759912     0.39700
H866        H  0.05950791  0.67073176  0.35585700     0.39300
H867        H  0.06721829  0.64580307  0.38260834     0.34200
C868        C  0.02046822  0.88407083  0.35686718    -0.27500
C869        C  0.49414350  0.88895320  0.34171018    -0.15600
C870        C  0.46775509  0.87613652  0.35257264     0.35100
C871        C  0.46913121  0.85390872  0.37413455    -0.27000
C872        C  0.49637111  0.84412817  0.38541404    -0.16200
C873        C  0.02216465  0.86160448  0.37808828     0.36100
N874        N  0.04966685  0.85621478  0.39285910    -0.90400
H875        H  0.04031914  0.89653855  0.35169595     0.17300
H876        H  0.44864631  0.84387821  0.38160955     0.17200
N877        N  0.43946181  0.88521641  0.34161653    -0.89500
H878        H  0.05609275  0.87566550  0.40355435     0.34600
H879        H  0.06563940  0.85132153  0.37688523     0.39700
H880        H  0.42690890  0.89280534  0.35946061     0.39300
H881        H  0.42877519  0.86669974  0.33280048     0.34200
C882        C  0.02262960  0.85082267  0.12628883    -0.27500
C883        C  0.49824483  0.84858626  0.10632114    -0.15600
C884        C  0.47237181  0.86438457  0.11380856     0.35100
C885        C  0.47342943  0.88608891  0.13598186    -0.27000
C886        C  0.99751504  0.88579636  0.15839560    -0.16200
C887        C  0.02381825  0.87207724  0.14873741     0.36100
N888        N  0.05179983  0.87925233  0.16180230    -0.90400
H889        H  0.04305619  0.84040284  0.11936673     0.17300
H890        H  0.45311652  0.89722770  0.14207033     0.17200
N891        N  0.44487673  0.85843167  0.09919151    -0.89500
H892        H  0.06590955  0.88682249  0.14509820     0.34600
H893        H  0.06083053  0.85989700  0.17056130     0.39700
H894        H  0.43764185  0.87798421  0.08927257     0.39300
H895        H  0.42929028  0.85232624  0.11516858     0.34200
C896        C  0.46943652  0.62362543  0.14310630    -0.27500
C897        C  0.99929589  0.61272160  0.15453923    -0.15600
C898        C  0.02563553  0.62477597  0.14232405     0.35100
C899        C  0.02384392  0.64693693  0.12084988    -0.27000
C900        C  0.99642187  0.65784694  0.11114767    -0.16200
C901        C  0.46771856  0.64555632  0.12124374     0.36100
N902        N  0.43944203  0.65762326  0.11365694    -0.90400
H903        H  0.44913809  0.61656792  0.15378067     0.17300
H904        H  0.04425508  0.65601232  0.11206114     0.17200
N905        N  0.05454325  0.61538499  0.15122524    -0.89500
H906        H  0.43000173  0.66647005  0.13278139     0.34600
H907        H  0.42587283  0.64035117  0.10637493     0.39700
H908        H  0.05640274  0.59268780  0.14749477     0.39300
H909        H  0.05733384  0.61990694  0.17367936     0.34200
N910        N  0.06026831  0.98523076  0.71569177    -0.07300
N911        N  0.07802268  0.97552595  0.69464273    -0.59400
N912        N  0.06104432  0.51624274  0.78237306    -0.07000
N913        N  0.07618506  0.52648688  0.80509060    -0.61600
N914        N  0.05879759  0.98466098  0.78368084    -0.06600
N915        N  0.07514036  0.97429139  0.80548058    -0.59400
N916        N  0.06177521  0.51534566  0.71431446    -0.06300
N917        N  0.07809346  0.52505315  0.69216874    -0.61900
C918        C  0.08778873  0.50008119  0.67898184     0.94900
C919        C  0.08500584  0.99884153  0.81945325     0.94700
N920        N  0.48185444  0.56484475  0.78121623    -0.07500
N921        N  0.47078144  0.58140563  0.80248737    -0.60000
N922        N  0.01322604  0.56497182  0.71312369    -0.05600
N923        N  0.02345867  0.58137468  0.69123848    -0.61300
N924        N  0.48374616  0.56503144  0.71331966    -0.07500
N925        N  0.47395407  0.58203096  0.69178260    -0.60300
N926        N  0.01306423  0.56605243  0.78117598    -0.05300
N927        N  0.02328615  0.58312475  0.80251360    -0.61300
Mn928      Mn  0.03811112  0.54135909  0.74769659     1.18400
C929        C  0.49495456  0.59195324  0.81669543     0.97000
C930        C  0.99879228  0.59157911  0.67765448     0.97600
N931        N  0.00961149  0.93580952  0.78252129    -0.07500
N932        N  0.01943706  0.91859864  0.80386919    -0.63800
N933        N  0.48334315  0.93570032  0.71419024    -0.06300
N934        N  0.47360328  0.91775516  0.69343345    -0.64500
N935        N  0.01063072  0.93549844  0.71488783    -0.07000
N936        N  0.02109912  0.91750012  0.69449518    -0.64100
N937        N  0.48255577  0.93689935  0.78167147    -0.05900
N938        N  0.47232174  0.92018711  0.80321954    -0.64800
Mn939      Mn  0.03550414  0.95968539  0.74908182     1.10700
C940        C  0.49698370  0.91062168  0.81713589     0.98200
C941        C  0.99658590  0.90630435  0.68139940     0.98300
N942        N  0.43571826  0.51502210  0.71175933    -0.07100
N943        N  0.41983181  0.52521287  0.68960811    -0.62400
N944        N  0.43244355  0.98458898  0.78046658    -0.06400
N945        N  0.41675112  0.97424694  0.80280679    -0.59200
N946        N  0.43353910  0.51497574  0.77961997    -0.07700
N947        N  0.41665346  0.52507599  0.80109303    -0.62000
N948        N  0.43358100  0.98378845  0.71245859    -0.06700
N949        N  0.41815901  0.97301790  0.69017149    -0.59200
Mn950      Mn  0.45799418  0.54058407  0.74646005     1.20200
Mn951      Mn  0.45723737  0.95959129  0.74717947     1.10100
Cl952      Cl  0.99811290  0.50168364  0.74803963    -0.87100
C953        C  0.41038383  0.50059917  0.67553640     0.95200
C954        C  0.40648678  0.99879294  0.81636963     0.95000
N955        N  0.48188115  0.71786238  0.56100060    -0.07300
N956        N  0.47167618  0.69690673  0.57850752    -0.59400
N957        N  0.01023660  0.78399012  0.55963609    -0.07000
N958        N  0.02028675  0.80431583  0.57805042    -0.61600
N959        N  0.48160099  0.78543758  0.55968895    -0.06600
N960        N  0.47135639  0.80630905  0.57720600    -0.59400
N961        N  0.00925851  0.71615740  0.55890884    -0.06300
N962        N  0.01914950  0.69448285  0.57560806    -0.61900
C963        C  0.99429997  0.68129867  0.58590779     0.94900
C964        C  0.49606313  0.81948821  0.58786328     0.94700
N965        N  0.06001383  0.78581083  0.98534216    -0.07500
N966        N  0.07764531  0.80692741  0.97560518    -0.60000
N967        N  0.05901688  0.71521024  0.51044757    -0.05600
N968        N  0.07453952  0.69267241  0.52056502    -0.61300
N969        N  0.06005076  0.71820803  0.98434741    -0.07500
N970        N  0.07640886  0.69668064  0.97365380    -0.60300
N971        N  0.06017966  0.78328049  0.51098135    -0.05300
N972        N  0.07714012  0.80437665  0.52179805    -0.61300
Mn973      Mn  0.03534085  0.74967980  0.53559761     1.18400
C974        C  0.08830425  0.81949875  0.00056685     0.97000
C975        C  0.08636558  0.68249428  0.99793756     0.97600
N976        N  0.43258309  0.78423346  0.51048374    -0.07500
N977        N  0.41534387  0.80554115  0.52033232    -0.63800
N978        N  0.43288176  0.71940116  0.98197847    -0.06300
N979        N  0.41641725  0.69776962  0.97138004    -0.64500
N980        N  0.43310283  0.71629010  0.51169558    -0.07000
N981        N  0.41700721  0.69425778  0.52212468    -0.64100
N982        N  0.43508656  0.78740364  0.98203517    -0.05900
N983        N  0.42063398  0.81032237  0.97136754    -0.64800
Mn984      Mn  0.45658898  0.75098623  0.53633700     1.10700
C985        C  0.41121760  0.82485832  0.99569764     0.98200
C986        C  0.40562205  0.68429189  0.99579102     0.98300
N987        N  0.01201003  0.71825153  0.93490556    -0.07100
N988        N  0.02301357  0.69784699  0.91728323    -0.62400
N989        N  0.48433033  0.78594785  0.93414656    -0.06400
N990        N  0.47451776  0.80804120  0.91803247    -0.59200
N991        N  0.01094516  0.78585652  0.93604263    -0.07700
N992        N  0.02094578  0.80772557  0.91954443    -0.62000
N993        N  0.48259196  0.71807768  0.93364024    -0.06700
N994        N  0.47201075  0.69654368  0.91704404    -0.59200
Mn995      Mn  0.03637819  0.75217160  0.95955948     1.20200
Mn996      Mn  0.45802434  0.75263846  0.95728366     1.10100
Cl997      Cl  0.99618701  0.75131008  0.99888399    -0.87100
C998        C  0.99883352  0.68402529  0.90633125     0.95200
C999        C  0.49943339  0.82155336  0.90842745     0.95000
N1000       N  0.28328710  0.93802657  0.98315577    -0.07300
N1001       N  0.30631039  0.92339189  0.97285417    -0.59400
N1002       N  0.21221638  0.93741806  0.51268318    -0.07000
N1003       N  0.19083519  0.92014264  0.52264040    -0.61600
N1004       N  0.21522504  0.93562614  0.98378048    -0.06600
N1005       N  0.19390084  0.91847977  0.97373114    -0.59400
N1006       N  0.28011271  0.93676653  0.51267615    -0.06300
N1007       N  0.30110806  0.91928156  0.52282349    -0.61900
C1008       C  0.32082541  0.91454423  0.99745955     0.94900
C1009       C  0.18072879  0.90803722  0.99845839     0.94700
N1010       N  0.21261318  0.51366928  0.56222562    -0.07500
N1011       N  0.19044100  0.52304258  0.57864419    -0.60000
N1012       N  0.28118034  0.98579625  0.56133694    -0.05600
N1013       N  0.30373930  0.97540142  0.57658636    -0.61300
N1014       N  0.28062598  0.51559770  0.56266959    -0.07500
N1015       N  0.30242168  0.52638259  0.57879431    -0.60300
N1016       N  0.21313558  0.98616232  0.56252609    -0.05300
N1017       N  0.19224729  0.97585913  0.58015457    -0.61300
Mn1018     Mn  0.24657705  0.96091424  0.53798877     1.18400
C1019       C  0.17775659  0.49785550  0.58868360     0.97000
C1020       C  0.31797188  0.99995812  0.58608537     0.97600
N1021       N  0.21322957  0.98427196  0.93448793    -0.07500
N1022       N  0.19152086  0.97330275  0.91834767    -0.63800
N1023       N  0.28055857  0.51805675  0.93251276    -0.06300
N1024       N  0.30201365  0.52863334  0.91570773    -0.64500
N1025       N  0.28134321  0.98621249  0.93401079    -0.07000
N1026       N  0.30359699  0.97652182  0.91784057    -0.64100
N1027       N  0.21227931  0.51639670  0.93325356    -0.05900
N1028       N  0.18924485  0.52590395  0.91809316    -0.64800
Mn1029     Mn  0.24822696  0.96029434  0.95815243     1.10700
C1030       C  0.17590643  0.50079368  0.90868777     0.98200
C1031       C  0.31670392  0.00146747  0.90769729     0.98300
N1032       N  0.27970301  0.56471343  0.51409554    -0.07100
N1033       N  0.30170970  0.58077950  0.52459452    -0.62400
N1034       N  0.21165670  0.56554543  0.98225008    -0.06400
N1035       N  0.18968251  0.58206892  0.97249313    -0.59200
N1036       N  0.21143468  0.56315713  0.51356837    -0.07700
N1037       N  0.18905113  0.57894443  0.52363548    -0.62000
N1038       N  0.27984119  0.56676953  0.98192054    -0.06700
N1039       N  0.30151911  0.58368419  0.97193725    -0.59200
Mn1040     Mn  0.24600908  0.54002754  0.53886959     1.20200
Mn1041     Mn  0.24606068  0.54244809  0.95667876     1.10100
Cl1042     Cl  0.24680579  0.50236992  0.99622903    -0.87100
C1043       C  0.31487850  0.59371752  0.99678258     0.95200
C1044       C  0.17627199  0.59170026  0.99747579     0.95000
C1045       C  0.37543393  0.85627126  0.52226817    -0.27500
C1046       C  0.39155184  0.85105916  0.99524409    -0.15600
C1047       C  0.37927495  0.86210799  0.96876364     0.35100
C1048       C  0.35721623  0.88382067  0.96994835    -0.27000
C1049       C  0.34720328  0.89506514  0.99707886    -0.16200
C1050       C  0.35356242  0.87817224  0.52370379     0.36100
N1051       N  0.34708163  0.89177435  0.55152356    -0.90400
H1052       H  0.38680166  0.85006492  0.54240418     0.17300
H1053       H  0.34720645  0.89111420  0.94946457     0.17200
N1054       N  0.38843087  0.85090723  0.94062094    -0.89500
H1055       H  0.36653700  0.90143668  0.55952755     0.34600
H1056       H  0.34064141  0.87523448  0.56633836     0.39700
H1057       H  0.39643582  0.86858991  0.92804360     0.39300
H1058       H  0.36983107  0.84226982  0.92990407     0.34200
C1059       C  0.35274937  0.62381165  0.97010239    -0.27500
C1060       C  0.33977269  0.61519063  0.99699501    -0.15600
C1061       C  0.35306476  0.62323016  0.52658048     0.35100
C1062       C  0.37530822  0.64485349  0.52519172    -0.27000
C1063       C  0.38425173  0.65938669  0.99553318    -0.16200
C1064       C  0.37489728  0.64561378  0.96913161     0.36100
N1065       N  0.38760796  0.65366583  0.94125472    -0.90400
H1066       H  0.34547493  0.61386515  0.94957565     0.17300
H1067       H  0.38346840  0.65425368  0.54564296     0.17200
N1068       N  0.34224101  0.61391279  0.55484755    -0.89500
H1069       H  0.37057733  0.66092756  0.92742757     0.34600
H1070       H  0.39687358  0.63474744  0.93182420     0.39700
H1071       H  0.33416124  0.63246056  0.56596269     0.39300
H1072       H  0.36006824  0.60555247  0.56693656     0.34200
C1073       C  0.12136000  0.85397149  0.97358815    -0.27500
C1074       C  0.11086970  0.84324375  0.00073957    -0.15600
C1075       C  0.12280777  0.85476062  0.02717262     0.35100
C1076       C  0.14519018  0.87621464  0.02587895    -0.27000
C1077       C  0.15608287  0.88647252  0.99867442    -0.16200
C1078       C  0.14373365  0.87534437  0.97228445     0.36100
N1079       N  0.15385302  0.88540715  0.94401069    -0.90400
H1080       H  0.11241704  0.84553563  0.95304329     0.17300
H1081       H  0.15427667  0.88459109  0.04638852     0.17200
N1082       N  0.11258591  0.84468665  0.05540517    -0.89500
H1083       H  0.12510935  0.90331943  0.43624407     0.34600
H1084       H  0.16158581  0.86716047  0.93218646     0.39700
H1085       H  0.10465027  0.86292209  0.06713274     0.39300
H1086       H  0.13067248  0.83610720  0.06693872     0.34200
C1087       C  0.11423826  0.64148329  0.52317444    -0.27500
C1088       C  0.10742453  0.65744891  0.99726634    -0.15600
C1089       C  0.11894846  0.64624472  0.97049708     0.35100
C1090       C  0.14067977  0.62421440  0.97112507    -0.27000
C1091       C  0.15135271  0.61296364  0.99796583    -0.16200
C1092       C  0.13887889  0.62324169  0.02467676     0.36100
N1093       N  0.14446650  0.60790993  0.55287432    -0.90400
H1094       H  0.10464742  0.64950855  0.54358212     0.17300
H1095       H  0.14966051  0.61637646  0.95036809     0.17200
N1096       N  0.10911417  0.65736589  0.94254985    -0.89500
H1097       H  0.12561036  0.59884764  0.56281025     0.34600
H1098       H  0.15180832  0.62543445  0.56601781     0.39700
H1099       H  0.10061560  0.63968315  0.93033224     0.39300
H1100       H  0.12748229  0.66578862  0.93125128     0.34200
C1101       C  0.35357782  0.97429195  0.87733581    -0.27500
C1102       C  0.34196320  0.00156505  0.88659186    -0.15600
C1103       C  0.35415087  0.02784784  0.87459386     0.35100
C1104       C  0.37582343  0.02615780  0.85265007    -0.27000
C1105       C  0.38611364  0.99890208  0.84213149    -0.16200
C1106       C  0.37568639  0.97262246  0.85551901     0.36100
N1107       N  0.38711304  0.94433418  0.84676139    -0.90400
H1108       H  0.34510501  0.95400439  0.88685280     0.17300
H1109       H  0.38413054  0.04657023  0.84323488     0.17200
N1110       N  0.34491586  0.05666793  0.88371410    -0.89500
H1111       H  0.37638209  0.92727113  0.85814155     0.34600
H1112       H  0.40931330  0.94355471  0.85321352     0.39700
H1113       H  0.34834093  0.56089817  0.90430388     0.39300
H1114       H  0.32260735  0.56236459  0.87659961     0.34200
C1115       C  0.12088565  0.97182632  0.85108263    -0.27500
C1116       C  0.10654223  0.99841829  0.84416456    -0.15600
C1117       C  0.11413056  0.02418232  0.86001011     0.35100
C1118       C  0.13623799  0.52693794  0.88111708    -0.27000
C1119       C  0.14979324  0.50017719  0.88892929    -0.16200
C1120       C  0.13905112  0.47363048  0.87651500     0.36100
N1121       N  0.15085907  0.44561094  0.88521592    -0.90400
H1122       H  0.11528177  0.95175575  0.83930266     0.17300
H1123       H  0.14346146  0.54744891  0.89113878     0.17200
N1124       N  0.09924821  0.05153522  0.85451442    -0.89500
H1125       H  0.15941514  0.43523378  0.86644449     0.34600
H1126       H  0.13345338  0.43265191  0.89330367     0.39700
H1127       H  0.11508465  0.06720263  0.84820966     0.39300
H1128       H  0.08963436  0.05860239  0.87429491     0.34200
C1129       C  0.11696064  0.97538082  0.64217990    -0.27500
C1130       C  0.10872055  0.49931837  0.65391443    -0.14100
C1131       C  0.11589839  0.52489829  0.63761532     0.35100
C1132       C  0.13790355  0.52364915  0.61589619    -0.27000
C1133       C  0.15287713  0.49723548  0.60984649    -0.16200
C1134       C  0.13862954  0.97473914  0.61994863     0.36100
N1135       N  0.14290366  0.94818173  0.60333408    -0.90400
H1136       H  0.10414349  0.95557583  0.64649688     0.17300
H1137       H  0.14348344  0.54366073  0.60395970     0.17200
N1138       N  0.10093423  0.55222367  0.64286855    -0.89500
H1139       H  0.12284373  0.94269840  0.59318558     0.34600
H1140       H  0.14827321  0.93125012  0.61809226     0.39700
H1141       H  0.09107004  0.55886645  0.62306625     0.39300
H1142       H  0.11674767  0.56809539  0.64866309     0.34200
C1143       C  0.35382452  0.97221580  0.61703294    -0.27500
C1144       C  0.34370196  0.99948044  0.60629200    -0.15600
C1145       C  0.34978295  0.52819786  0.62535497     0.35100
C1146       C  0.37276285  0.52716828  0.64603769    -0.27000
C1147       C  0.38876144  0.50111780  0.65100050    -0.16200
C1148       C  0.37568529  0.97078871  0.63894070     0.36100
N1149       N  0.38483980  0.94255124  0.64982749    -0.90400
H1150       H  0.34413272  0.95179483  0.60910321     0.17300
H1151       H  0.37732050  0.54674463  0.65903372     0.17200
N1152       N  0.33324402  0.55494463  0.62205471    -0.89500
H1153       H  0.39297189  0.93029144  0.63203022     0.34600
H1154       H  0.36619897  0.93162153  0.65815989     0.39700
H1155       H  0.34794819  0.57178093  0.61605578     0.39300
H1156       H  0.32409868  0.56035486  0.64257434     0.34200
C1157       C  0.46959624  0.65156352  0.87039411    -0.27500
C1158       C  0.99964015  0.65993147  0.88411767    -0.15600
C1159       C  0.02591889  0.65197633  0.86915827     0.35100
C1160       C  0.02515456  0.62980594  0.84751419    -0.27000
C1161       C  0.49417090  0.61341602  0.84147682    -0.16200
C1162       C  0.46854836  0.62990851  0.84823799     0.36100
N1163       N  0.44162272  0.62554041  0.83210361    -0.90400
H1164       H  0.44988903  0.66445526  0.87472356     0.17300
H1165       H  0.04543895  0.62437917  0.83595455     0.17200
N1166       N  0.05336911  0.66664144  0.87531098    -0.89500
H1167       H  0.43585157  0.64557867  0.82219214     0.34600
H1168       H  0.42496280  0.61990477  0.84714649     0.39700
H1169       H  0.06105834  0.67620197  0.85571621     0.39300
H1170       H  0.06872696  0.65072781  0.88195169     0.34200
C1171       C  0.01932277  0.88347515  0.85873504    -0.27500
C1172       C  0.49696175  0.88946629  0.84206912    -0.15600
C1173       C  0.47110924  0.87390795  0.85025300     0.35100
C1174       C  0.47247033  0.85258628  0.87252266    -0.27000
C1175       C  0.49913631  0.84623771  0.88704977    -0.16200
C1176       C  0.02028413  0.86253292  0.88152204     0.36100
N1177       N  0.04624452  0.86032362  0.89955053    -0.90400
H1178       H  0.03841854  0.89755476  0.85507593     0.17300
H1179       H  0.45248820  0.84040555  0.87786644     0.17200
N1180       N  0.44346724  0.87902088  0.83563090    -0.89500
H1181       H  0.04999594  0.88087098  0.90940744     0.34600
H1182       H  0.06424573  0.85568656  0.88579715     0.39700
H1183       H  0.42793272  0.88537477  0.85152399     0.39300
H1184       H  0.43634594  0.85910636  0.82632054     0.34200
C1185       C  0.02232619  0.85205241  0.62212308    -0.27500
C1186       C  0.49630197  0.84280785  0.61079471    -0.15600
C1187       C  0.46993374  0.85483984  0.62233631     0.35100
C1188       C  0.47135495  0.87583811  0.64499076    -0.27000
C1189       C  0.99679871  0.88373560  0.65748054    -0.16200
C1190       C  0.02335256  0.87333039  0.64468137     0.36100
N1191       N  0.05151907  0.88412423  0.65446628    -0.90400
H1192       H  0.04296543  0.84449101  0.61258275     0.17300
H1193       H  0.45081539  0.88469967  0.65356896     0.17200
N1194       N  0.44158492  0.84587049  0.61130105    -0.89500
H1195       H  0.06248295  0.89338378  0.63632679     0.34600
H1196       H  0.06394303  0.86614071  0.66189423     0.39700
H1197       H  0.43062897  0.86461999  0.60346010     0.39300
H1198       H  0.42930738  0.83724798  0.62890665     0.34200
C1199       C  0.47210864  0.62921325  0.64825297    -0.27500
C1200       C  0.99837673  0.61291218  0.65252860    -0.15600
C1201       C  0.02443503  0.62522499  0.64005197     0.35100
C1202       C  0.02226297  0.64660569  0.61789616    -0.27000
C1203       C  0.99472149  0.65653623  0.60751907    -0.16200
C1204       C  0.47068927  0.65149767  0.62684354     0.36100
N1205       N  0.44300566  0.66587932  0.62143503    -0.90400
H1206       H  0.45201159  0.62334550  0.65997252     0.17300
H1207       H  0.04256793  0.65599930  0.60919867     0.17200
N1208       N  0.05351467  0.61697254  0.64945672    -0.89500
H1209       H  0.43569974  0.67516894  0.64127815     0.34600
H1210       H  0.42761002  0.64986706  0.61495999     0.39700
H1211       H  0.05597418  0.59424510  0.64649653     0.39300
H1212       H  0.05600236  0.62231268  0.67176942     0.34200
N1213       N  0.56081169  0.48712780  0.21424763    -0.07300
N1214       N  0.57671140  0.47713303  0.19193251    -0.59400
N1215       N  0.55758434  0.01721745  0.28332715    -0.07000
N1216       N  0.57387656  0.02826556  0.30480320    -0.61600
N1217       N  0.55982617  0.48682881  0.28263096    -0.06600
N1218       N  0.57588933  0.47665115  0.30481160    -0.59400
N1219       N  0.55973114  0.01657247  0.21556209    -0.06300
N1220       N  0.57669452  0.02669717  0.19406127    -0.61900
C1221       C  0.58759527  0.00198101  0.18127446     0.94900
C1222       C  0.58560666  0.50129177  0.31884033     0.94700
N1223       N  0.97971034  0.06587105  0.27979869    -0.07500
N1224       N  0.96891610  0.08231682  0.30133143    -0.60000
N1225       N  0.51000596  0.06533678  0.21387960    -0.05600
N1226       N  0.52055574  0.08292380  0.19311323    -0.61300
N1227       N  0.98183388  0.06446017  0.21159347    -0.07500
N1228       N  0.97250883  0.08045919  0.18901720    -0.60300
N1229       N  0.50796771  0.06524389  0.28174110    -0.05300
N1230       N  0.51738412  0.08194405  0.30365785    -0.61300
Mn1231     Mn  0.53449035  0.04171721  0.24856055     1.18400
C1232       C  0.99334071  0.09236564  0.31546414     0.97000
C1233       C  0.49612146  0.09346369  0.17943285     0.97600
N1234       N  0.51045004  0.43757492  0.28073695    -0.07500
N1235       N  0.52028260  0.41985152  0.30160777    -0.63800
N1236       N  0.98189934  0.43568145  0.21442563    -0.06300
N1237       N  0.97188058  0.41865291  0.19292090    -0.64500
N1238       N  0.51178036  0.43796334  0.21296561    -0.07000
N1239       N  0.52231638  0.42163482  0.19121993    -0.64100
N1240       N  0.98127295  0.43709434  0.28244025    -0.05900
N1241       N  0.97087078  0.42094927  0.30442135    -0.64800
Mn1242     Mn  0.53646052  0.46171340  0.24769788     1.10700
C1243       C  0.99550809  0.41092963  0.31812538     0.98200
C1244       C  0.49780512  0.41162620  0.17714788     0.98300
N1245       N  0.93258801  0.01512218  0.21224022    -0.07100
N1246       N  0.91486676  0.02486815  0.19134942    -0.62400
N1247       N  0.93201471  0.48647578  0.28131769    -0.06400
N1248       N  0.91476756  0.47695923  0.30289057    -0.59200
N1249       N  0.93083453  0.01656294  0.27973602    -0.07700
N1250       N  0.91355620  0.02683697  0.30089192    -0.62000
N1251       N  0.93306809  0.48513820  0.21319800    -0.06700
N1252       N  0.91631423  0.47475818  0.19166350    -0.59200
Mn1253     Mn  0.95558133  0.04125663  0.24575418     1.20200
Mn1254     Mn  0.95635322  0.46035833  0.24788187     1.10100
Cl1255     Cl  0.49539102  0.00128463  0.24775309    -0.87100
C1256       C  0.90403815  0.99995517  0.17894083     0.95200
C1257       C  0.90452305  0.50197430  0.31572794     0.95000
N1258       N  0.98138286  0.21634027  0.05911075    -0.07300
N1259       N  0.97123179  0.19402406  0.07501651    -0.59400
N1260       N  0.50979487  0.28657752  0.05911908    -0.07000
N1261       N  0.52010014  0.30855620  0.07535516    -0.61600
N1262       N  0.98149582  0.28444562  0.05984403    -0.06600
N1263       N  0.97107508  0.30564828  0.07688136    -0.59400
N1264       N  0.50842000  0.21860386  0.06080539    -0.06300
N1265       N  0.51828679  0.19757684  0.07837046    -0.61900
C1266       C  0.49338687  0.18485045  0.08915827     0.94900
C1267       C  0.99561375  0.31910455  0.08753890     0.94700
N1268       N  0.56148567  0.28379429  0.48270473    -0.07500
N1269       N  0.57938812  0.30479828  0.47298787    -0.60000
N1270       N  0.55753489  0.21600417  0.01170772    -0.05600
N1271       N  0.57302297  0.19360132  0.02216963    -0.61300
N1272       N  0.55913317  0.21566027  0.48275270    -0.07500
N1273       N  0.57449634  0.19296135  0.47284501    -0.60300
N1274       N  0.55945039  0.28410035  0.01016280    -0.05300
N1275       N  0.57659862  0.30555651  0.01998388    -0.61300
Mn1276     Mn  0.53452702  0.25136234  0.03613702     1.18400
C1277       C  0.58991148  0.31753966  0.49800381     0.97000
C1278       C  0.58352148  0.17902224  0.49772676     0.97600
N1279       N  0.93285329  0.28518792  0.01037342    -0.07500
N1280       N  0.91648058  0.30712563  0.02038806    -0.63800
N1281       N  0.93326168  0.21679996  0.48363419    -0.06300
N1282       N  0.91713247  0.19466000  0.47357740    -0.64500
N1283       N  0.93210832  0.21716377  0.00999745    -0.07000
N1284       N  0.91528258  0.19547823  0.01997310    -0.64100
N1285       N  0.93362529  0.28482682  0.48315343    -0.05900
N1286       N  0.91746807  0.30669146  0.47272287    -0.64800
Mn1287     Mn  0.95625012  0.25076496  0.03555866     1.10700
C1288       C  0.90751884  0.32066529  0.49718390     0.98200
C1289       C  0.90737838  0.18095393  0.49831411     0.98300
N1290       N  0.51027985  0.21685426  0.43354025    -0.07100
N1291       N  0.51991000  0.19495292  0.41697258    -0.62400
N1292       N  0.98255356  0.28419009  0.43385378    -0.06400
N1293       N  0.97256018  0.30573688  0.41696886    -0.59200
N1294       N  0.51202905  0.28442931  0.43275701    -0.07700
N1295       N  0.52244908  0.30455334  0.41437199    -0.62000
N1296       N  0.98190111  0.21633766  0.43437757    -0.06700
N1297       N  0.97145342  0.19482825  0.41764204    -0.59200
Mn1298     Mn  0.53653836  0.25029480  0.45724220     1.20200
Mn1299     Mn  0.95710370  0.25056202  0.45811239     1.10100
Cl1300     Cl  0.49665148  0.25137548  0.49698538    -0.87100
C1301       C  0.49485979  0.18197170  0.40688190     0.95200
C1302       C  0.99746959  0.31877210  0.40651549     0.95000
N1303       N  0.78314833  0.43935555  0.48480135    -0.07300
N1304       N  0.80511487  0.42316476  0.47449018    -0.59400
N1305       N  0.71294132  0.43582928  0.01042011    -0.07000
N1306       N  0.69129715  0.41846514  0.01959073    -0.61600
N1307       N  0.71521242  0.43684027  0.48498276    -0.06600
N1308       N  0.69463123  0.41909468  0.47440747    -0.59400
N1309       N  0.78098833  0.43704737  0.01242205    -0.06300
N1310       N  0.80265365  0.42046257  0.02272662    -0.61900
C1311       C  0.81875562  0.41289703  0.49909401     0.94900
C1312       C  0.68169763  0.40752686  0.49875001     0.94700
N1313       N  0.71147831  0.01499277  0.06214230    -0.07500
N1314       N  0.69022907  0.02457174  0.07963625    -0.60000
N1315       N  0.77905826  0.48513595  0.06225210    -0.05600
N1316       N  0.80103470  0.47528107  0.07877593    -0.61300
N1317       N  0.77904713  0.01666644  0.06144266    -0.07500
N1318       N  0.79965699  0.02709447  0.07921450    -0.60300
N1319       N  0.71049090  0.48424254  0.06025780    -0.05300
N1320       N  0.68782582  0.47402084  0.07573245    -0.61300
Mn1321     Mn  0.74582237  0.45978012  0.03714780     1.18400
C1322       C  0.67771530  0.99955770  0.09027836     0.97000
C1323       C  0.81398164  0.50021366  0.08920690     0.97600
N1324       N  0.71242835  0.48662204  0.43664983    -0.07500
N1325       N  0.69084200  0.47582414  0.42015154    -0.63800
N1326       N  0.77958737  0.01819574  0.43466645    -0.06300
N1327       N  0.80089516  0.02879060  0.41774206    -0.64500
N1328       N  0.78083775  0.48923990  0.43580766    -0.07000
N1329       N  0.80257869  0.48010768  0.41867356    -0.64100
N1330       N  0.71156483  0.01803630  0.43485655    -0.05900
N1331       N  0.68962380  0.02851184  0.41872937    -0.64800
Mn1332     Mn  0.74800102  0.46239466  0.45987657     1.10700
C1333       C  0.67580165  0.00400252  0.40852029     0.98200
C1334       C  0.81496495  0.50531869  0.40820795     0.98300
N1335       N  0.77791230  0.06614575  0.01282375    -0.07100
N1336       N  0.79995002  0.08246310  0.02289382    -0.62400
N1337       N  0.71156593  0.06588948  0.48488743    -0.06400
N1338       N  0.68906487  0.08170040  0.47519388    -0.59200
N1339       N  0.70961670  0.06429322  0.01360990    -0.07700
N1340       N  0.68706430  0.07945718  0.02419794    -0.62000
N1341       N  0.77999131  0.06585160  0.48493646    -0.06700
N1342       N  0.80238451  0.08193329  0.47520754    -0.59200
Mn1343     Mn  0.74453180  0.04127419  0.03813555     1.20200
Mn1344     Mn  0.74569626  0.04277414  0.45915051     1.10100
Cl1345     Cl  0.74571553  0.00217778  0.49810774    -0.87100
C1346       C  0.81607040  0.09117288  0.50017891     0.95200
C1347       C  0.67536008  0.09077936  0.50020418     0.95000
C1348       C  0.87928899  0.36027422  0.02195301    -0.27500
C1349       C  0.88661571  0.34596719  0.49689799    -0.15600
C1350       C  0.87190259  0.35486488  0.47084029     0.35100
C1351       C  0.85056475  0.37726244  0.47202425    -0.27000
C1352       C  0.84344172  0.39129925  0.49871170    -0.16200
C1353       C  0.85759855  0.38235635  0.02330583     0.36100
N1354       N  0.85201957  0.39703008  0.05076455    -0.90400
H1355       H  0.89115201  0.35451089  0.04193515     0.17300
H1356       H  0.83899817  0.38313034  0.45190459     0.17200
N1357       N  0.87792432  0.34085343  0.44313088    -0.89500
H1358       H  0.87175195  0.40689098  0.05779366     0.34600
H1359       H  0.84599068  0.38108664  0.06638106     0.39700
H1360       H  0.88495336  0.35706119  0.42821044     0.39300
H1361       H  0.85816278  0.33178819  0.43518275     0.34200
C1362       C  0.85504366  0.11972788  0.47362625    -0.27500
C1363       C  0.84164971  0.11180824  0.50051129    -0.15600
C1364       C  0.85235756  0.12366890  0.02393202     0.35100
C1365       C  0.87432143  0.14556888  0.02245884    -0.27000
C1366       C  0.88643245  0.15566383  0.49862630    -0.16200
C1367       C  0.87738045  0.14128409  0.47245807     0.36100
N1368       N  0.89059599  0.14848816  0.44458484    -0.90400
H1369       H  0.84787578  0.10949046  0.45320493     0.17300
H1370       H  0.88395311  0.15353451  0.04288244     0.17200
N1371       N  0.84400559  0.11194537  0.05213722    -0.89500
H1372       H  0.87384908  0.15550638  0.43029154     0.34600
H1373       H  0.89985645  0.12925226  0.43581643     0.39700
H1374       H  0.83672597  0.12940061  0.06536128     0.39300
H1375       H  0.86285554  0.10290088  0.06199366     0.34200
C1376       C  0.62535590  0.35075055  0.47195032    -0.27500
C1377       C  0.61255786  0.34139266  0.49861997    -0.15600
C1378       C  0.62232980  0.35436779  0.52531719     0.35100
C1379       C  0.64468019  0.37595726  0.52479637    -0.27000
C1380       C  0.65768123  0.38507612  0.49812572    -0.16200
C1381       C  0.64777110  0.37223220  0.47143751     0.36100
N1382       N  0.66059125  0.38049815  0.44367994    -0.90400
H1383       H  0.61827950  0.34106224  0.45123669     0.17300
H1384       H  0.65189508  0.38555401  0.54551019     0.17200
N1385       N  0.60975212  0.34579911  0.55309817    -0.89500
H1386       H  0.64503107  0.38415678  0.92461073     0.34600
H1387       H  0.66940591  0.36155315  0.43387146     0.39700
H1388       H  0.60084691  0.36460210  0.56310780     0.39300
H1389       H  0.62679412  0.33793172  0.56656383     0.34200
C1390       C  0.61258784  0.14222504  0.02505910    -0.27500
C1391       C  0.60406945  0.15359413  0.49846500    -0.15600
C1392       C  0.61234025  0.13824238  0.47267647     0.35100
C1393       C  0.63508647  0.11727635  0.47390774    -0.27000
C1394       C  0.64940867  0.11071362  0.50061850    -0.16200
C1395       C  0.63935930  0.12425141  0.52685752     0.36100
N1396       N  0.64392936  0.10946608  0.05451519    -0.90400
H1397       H  0.60389860  0.15099323  0.04556280     0.17300
H1398       H  0.64175031  0.10634797  0.45368802     0.17200
N1399       N  0.59765738  0.14360037  0.44520116    -0.89500
H1400       H  0.62549322  0.10083855  0.06555601     0.34600
H1401       H  0.65191123  0.12737535  0.06674313     0.39700
H1402       H  0.58864100  0.12355679  0.43806680     0.39300
H1403       H  0.61351940  0.15027424  0.42973047     0.34200
C1404       C  0.84634126  0.47873248  0.37215002    -0.27500
C1405       C  0.83910389  0.50563742  0.38572678    -0.15600
C1406       C  0.85462082  0.53147408  0.37684067     0.35100
C1407       C  0.87615265  0.52969934  0.35446737    -0.27000
C1408       C  0.88270808  0.50274974  0.34043744    -0.16200
C1409       C  0.86761524  0.47705535  0.34971870     0.36100
N1410       N  0.87317889  0.44911109  0.33603338    -0.90400
H1411       H  0.83492946  0.45862053  0.37845689     0.17300
H1412       H  0.88765999  0.54967542  0.34786938     0.17200
N1413       N  0.84930913  0.55972315  0.39002363    -0.89500
H1414       H  0.85328051  0.44132658  0.32712464     0.34600
H1415       H  0.87997478  0.43430217  0.35239539     0.39700
H1416       H  0.85059809  0.05815348  0.41026897     0.39300
H1417       H  0.82488645  0.06469643  0.38330842     0.34200
C1418       C  0.61926121  0.47418873  0.35336654    -0.27500
C1419       C  0.60655619  0.50105263  0.34440076    -0.15600
C1420       C  0.61505045  0.52715522  0.35930438     0.35100
C1421       C  0.64515328  0.03026022  0.37116964    -0.27000
C1422       C  0.65065160  0.00449684  0.38748731    -0.16200
C1423       C  0.63270194  0.97944582  0.38262513     0.36100
N1424       N  0.63612121  0.95351638  0.40033688    -0.90400
H1425       H  0.61275609  0.45377867  0.34268271     0.17300
H1426       H  0.65853279  0.04982940  0.37475160     0.17200
N1427       N  0.60152259  0.55484663  0.35225736    -0.89500
H1428       H  0.64062814  0.93575945  0.38629492     0.34600
H1429       H  0.61589559  0.94942206  0.41082216     0.39700
H1430       H  0.61816830  0.56952624  0.34565170     0.39300
H1431       H  0.59180291  0.56319502  0.37147507     0.34200
C1432       C  0.61155034  0.47558940  0.13697927    -0.27500
C1433       C  0.60930382  0.00160204  0.15671804    -0.14100
C1434       C  0.61828741  0.02762598  0.14205558     0.35100
C1435       C  0.64024764  0.02626754  0.12022317    -0.27000
C1436       C  0.65348267  0.99934916  0.11238419    -0.16200
C1437       C  0.63240623  0.47415540  0.11398373     0.36100
N1438       N  0.63664519  0.44694411  0.09845399    -0.90400
H1439       H  0.59941571  0.45577401  0.14290441     0.17300
H1440       H  0.64703446  0.04657744  0.10947581     0.17200
N1441       N  0.60523795  0.05554081  0.14908085    -0.89500
H1442       H  0.61637028  0.44068592  0.08920352     0.34600
H1443       H  0.64273357  0.43079044  0.11378715     0.39700
H1444       H  0.59595124  0.06415339  0.12975617     0.39300
H1445       H  0.62208334  0.06985208  0.15590404     0.34200
C1446       C  0.85498198  0.47462770  0.11576980    -0.27500
C1447       C  0.83900867  0.50067250  0.11041771    -0.15600
C1448       C  0.84510033  0.02827424  0.12734463     0.35100
C1449       C  0.86735074  0.02685438  0.14871815    -0.27000
C1450       C  0.88113953  0.00000946  0.15574078    -0.16200
C1451       C  0.87764695  0.47378201  0.13700547     0.36100
N1452       N  0.89364404  0.44690190  0.14162488    -0.90400
H1453       H  0.84977241  0.45469475  0.10357408     0.17300
H1454       H  0.87348964  0.04696007  0.16017205     0.17200
N1455       N  0.83086041  0.05594158  0.12169352    -0.89500
H1456       H  0.90336865  0.44078303  0.12157884     0.34600
H1457       H  0.87848280  0.43045262  0.14756764     0.39700
H1458       H  0.84703197  0.07119248  0.11520526     0.39300
H1459       H  0.82146929  0.06337343  0.14144495     0.34200
C1460       C  0.96864528  0.14369468  0.37751415    -0.27500
C1461       C  0.49414602  0.15713228  0.38556864    -0.15600
C1462       C  0.52029406  0.14315617  0.37589188     0.35100
C1463       C  0.51885804  0.12143904  0.35397706    -0.27000
C1464       C  0.99331648  0.11348248  0.34045728    -0.16200
C1465       C  0.96721991  0.12201587  0.35533138     0.36100
N1466       N  0.93927412  0.10884023  0.34811662    -0.90400
H1467       H  0.94836695  0.15030468  0.38844717     0.17300
H1468       H  0.53931095  0.11137815  0.34660527     0.17200
N1469       N  0.54851345  0.15088511  0.38804276    -0.89500
H1470       H  0.92480805  0.12564088  0.34168259     0.34600
H1471       H  0.93071834  0.09902703  0.36723004     0.39700
H1472       H  0.56206998  0.15829774  0.37082655     0.39300
H1473       H  0.55792014  0.13167740  0.39667058     0.34200
C1474       C  0.52249005  0.37340177  0.34563010    -0.27500
C1475       C  0.99568704  0.38933835  0.34271410    -0.15600
C1476       C  0.96968437  0.38121328  0.35814477     0.35100
C1477       C  0.97092192  0.35829365  0.37907525    -0.27000
C1478       C  0.99760828  0.34369513  0.38531880    -0.16200
C1479       C  0.52386529  0.35095420  0.36683260     0.36100
N1480       N  0.55196899  0.33822895  0.37395491    -0.90400
H1481       H  0.54291988  0.38075887  0.33541394     0.17300
H1482       H  0.95086877  0.35179718  0.39053108     0.17200
N1483       N  0.94213671  0.39603604  0.35253762    -0.89500
H1484       H  0.56590386  0.35508180  0.38150242     0.34600
H1485       H  0.56110350  0.32961046  0.35457007     0.39700
H1486       H  0.94456949  0.41794941  0.35950157     0.39300
H1487       H  0.92512604  0.38693724  0.36528865     0.34200
C1488       C  0.52284288  0.35725010  0.11789858    -0.27500
C1489       C  0.99541047  0.34338010  0.10967832    -0.15600
C1490       C  0.96883566  0.35569091  0.12060838     0.35100
C1491       C  0.96983751  0.37705249  0.14308082    -0.27000
C1492       C  0.49784438  0.39074741  0.15177748    -0.16200
C1493       C  0.52421554  0.37868435  0.14023973     0.36100
N1494       N  0.55251787  0.38766846  0.15135632    -0.90400
H1495       H  0.54334649  0.34774644  0.10995406     0.17300
H1496       H  0.94917734  0.38586379  0.15142261     0.17200
N1497       N  0.94069220  0.34658072  0.10917927    -0.89500
H1498       H  0.56491799  0.39608826  0.13373125     0.34600
H1499       H  0.56336699  0.36896142  0.15942805     0.39700
H1500       H  0.92993123  0.36521856  0.10082298     0.39300
H1501       H  0.92805562  0.33827668  0.12668674     0.34200
C1502       C  0.97186368  0.11790756  0.13607022    -0.27500
C1503       C  0.49617518  0.11599226  0.15540814    -0.15600
C1504       C  0.52250783  0.12726189  0.14244368     0.35100
C1505       C  0.52082484  0.14914494  0.12068241    -0.27000
C1506       C  0.49353156  0.16063810  0.11134522    -0.16200
C1507       C  0.97063339  0.13942746  0.11371912     0.36100
N1508       N  0.94303515  0.14524279  0.09930074    -0.90400
H1509       H  0.95159451  0.10667133  0.14231480     0.17300
H1510       H  0.54127750  0.15744814  0.11125457     0.17200
N1511       N  0.55136084  0.11720429  0.15073666    -0.89500
H1512       H  0.92764987  0.15154089  0.11535647     0.34600
H1513       H  0.93558953  0.12558970  0.08969355     0.39700
H1514       H  0.55248456  0.09440700  0.14727143     0.39300
H1515       H  0.55485730  0.12195469  0.17302926     0.34200
N1516       N  0.56190246  0.48762440  0.71503672    -0.07300
N1517       N  0.57752165  0.47747389  0.69267486    -0.59400
N1518       N  0.55864801  0.01688774  0.78191817    -0.07000
N1519       N  0.57456023  0.02765133  0.80387860    -0.61600
N1520       N  0.56090436  0.48776704  0.78279324    -0.06600
N1521       N  0.57772966  0.47769980  0.80429611    -0.59400
N1522       N  0.55942344  0.01624871  0.71396335    -0.06300
N1523       N  0.57520624  0.02682242  0.69183508    -0.61900
C1524       C  0.58564772  0.00243850  0.67816088     0.94900
C1525       C  0.58761041  0.50240973  0.81788576     0.94700
N1526       N  0.98072753  0.06311190  0.78225239    -0.07500
N1527       N  0.97003005  0.07978807  0.80359965    -0.60000
N1528       N  0.50971990  0.06409510  0.71277999    -0.05600
N1529       N  0.52013224  0.08119883  0.69157759    -0.61300
N1530       N  0.98262742  0.06364404  0.71442045    -0.07500
N1531       N  0.97331790  0.08135903  0.69320937    -0.60300
N1532       N  0.50828497  0.06474768  0.78052582    -0.05300
N1533       N  0.51765181  0.08210773  0.80194318    -0.61300
Mn1534     Mn  0.53472910  0.04114816  0.74737223     1.18400
C1535       C  0.99446452  0.08966166  0.81778067     0.97000
C1536       C  0.49561695  0.09112876  0.67767344     0.97600
N1537       N  0.51241415  0.43797271  0.78192060    -0.07500
N1538       N  0.52208773  0.42105427  0.80359438    -0.63800
N1539       N  0.98338199  0.43736130  0.71459754    -0.06300
N1540       N  0.97343264  0.42013151  0.69321131    -0.64500
N1541       N  0.51430047  0.43751045  0.71407053    -0.07000
N1542       N  0.52521039  0.42070031  0.69287207    -0.64100
N1543       N  0.98290434  0.43849091  0.78250962    -0.05900
N1544       N  0.97232759  0.42224193  0.80423833    -0.64800
Mn1545     Mn  0.53815951  0.46207310  0.74854377     1.10700
C1546       C  0.99680430  0.41207333  0.81802433     0.98200
C1547       C  0.50088093  0.41022274  0.67884921     0.98300
N1548       N  0.93287760  0.01416413  0.71360831    -0.07100
N1549       N  0.91588505  0.02423577  0.69219053    -0.62400
N1550       N  0.93452429  0.48780279  0.78231160    -0.06400
N1551       N  0.91826059  0.47800577  0.80454561    -0.59200
N1552       N  0.93178475  0.01453909  0.78154780    -0.07700
N1553       N  0.91556387  0.02499065  0.80343086    -0.62000
N1554       N  0.93489765  0.48701610  0.71420512    -0.06700
N1555       N  0.91855647  0.47666877  0.69241490    -0.59200
Mn1556     Mn  0.95629693  0.03951195  0.74777841     1.20200
Mn1557     Mn  0.95815768  0.46199631  0.74836588     1.10100
Cl1558     Cl  0.49602092  0.00034975  0.74715874    -0.87100
C1559       C  0.90535312  0.99948147  0.67908711     0.95200
C1560       C  0.90843334  0.50293431  0.81779794     0.95000
N1561       N  0.98263717  0.21722265  0.56197925    -0.07300
N1562       N  0.97243668  0.19636806  0.57966028    -0.59400
N1563       N  0.51201830  0.28506807  0.56073523    -0.07000
N1564       N  0.52267943  0.30636026  0.57761830    -0.61600
N1565       N  0.98275105  0.28504828  0.56126933    -0.06600
N1566       N  0.97251492  0.30643418  0.57817560    -0.59400
N1567       N  0.51000573  0.21712599  0.56082635    -0.06300
N1568       N  0.51957490  0.19543191  0.57776977    -0.61900
C1569       C  0.49443771  0.18291126  0.58829009     0.94900
C1570       C  0.99717831  0.31979997  0.58865324     0.94700
N1571       N  0.55978204  0.28341735  0.98113826    -0.07500
N1572       N  0.57722203  0.30440468  0.97063170    -0.60000
N1573       N  0.55884457  0.21575884  0.51178527    -0.05600
N1574       N  0.57399078  0.19320876  0.52222099    -0.61300
N1575       N  0.55748148  0.21551303  0.98267565    -0.07500
N1576       N  0.57286930  0.19287432  0.97281647    -0.60300
N1577       N  0.56116892  0.28355249  0.51175569    -0.05300
N1578       N  0.57870536  0.30430913  0.52234130    -0.61300
Mn1579     Mn  0.53620652  0.25038198  0.53688502     1.18400
C1580       C  0.58747950  0.31819190  0.99514165     0.97000
C1581       C  0.58239870  0.17924372  0.99762000     0.97600
N1582       N  0.93362966  0.28514484  0.51219010    -0.07500
N1583       N  0.91748581  0.30734506  0.52207800    -0.63800
N1584       N  0.93212447  0.21742495  0.98096559    -0.06300
N1585       N  0.91529100  0.19594413  0.97060607    -0.64500
N1586       N  0.93338566  0.21686561  0.51266902    -0.07000
N1587       N  0.91730189  0.19475465  0.52294867    -0.64100
N1588       N  0.93306890  0.28520445  0.98133785    -0.05900
N1589       N  0.91685749  0.30703802  0.97100410    -0.64800
Mn1590     Mn  0.95737158  0.25105152  0.53766904     1.10700
C1591       C  0.90664230  0.32060660  0.99555156     0.98200
C1592       C  0.90498961  0.18228990  0.99516888     0.98300
N1593       N  0.50879340  0.21582956  0.93342740    -0.07100
N1594       N  0.51865915  0.19416072  0.91673506    -0.62400
N1595       N  0.98235513  0.28519596  0.93270186    -0.06400
N1596       N  0.97254530  0.30734649  0.91656186    -0.59200
N1597       N  0.51080055  0.28341733  0.93194851    -0.07700
N1598       N  0.52165559  0.30446228  0.91491279    -0.62000
N1599       N  0.98150459  0.21743106  0.93220094    -0.06700
N1600       N  0.97125097  0.19588928  0.91541513    -0.59200
Mn1601     Mn  0.53491286  0.24953211  0.95666773     1.20200
Mn1602     Mn  0.95655359  0.25130806  0.95609792     1.10100
Cl1603     Cl  0.49491281  0.25128309  0.99620672    -0.87100
C1604       C  0.49380100  0.18129550  0.90612228     0.95200
C1605       C  0.99755553  0.32080689  0.90693463     0.95000
N1606       N  0.78180070  0.43783995  0.98339773    -0.07300
N1607       N  0.80391410  0.42180833  0.97335867    -0.59400
N1608       N  0.71509948  0.43630782  0.51401677    -0.07000
N1609       N  0.69437208  0.41809520  0.52375839    -0.61600
N1610       N  0.71393914  0.43631012  0.98139038    -0.06600
N1611       N  0.69302033  0.41922308  0.97024857    -0.59400
N1612       N  0.78309106  0.43885202  0.51385847    -0.06300
N1613       N  0.80502939  0.42245707  0.52386110    -0.61900
C1614       C  0.81688489  0.41122054  0.99808840     0.94900
C1615       C  0.67897642  0.40824448  0.99430815     0.94700
N1616       N  0.71126574  0.01548877  0.56145932    -0.07500
N1617       N  0.68910082  0.02551939  0.57750060    -0.60000
N1618       N  0.78188153  0.48700343  0.56345498    -0.05600
N1619       N  0.80382028  0.47731649  0.58004657    -0.61300
N1620       N  0.77907419  0.01563536  0.56229826    -0.07500
N1621       N  0.79997920  0.02583241  0.57984899    -0.60300
N1622       N  0.71385106  0.48538074  0.56351696    -0.05300
N1623       N  0.69171582  0.47474439  0.57934355    -0.61300
Mn1624     Mn  0.74842604  0.46116825  0.53945211     1.18400
C1625       C  0.67512725  0.00078053  0.58689582     0.97000
C1626       C  0.81665014  0.50232846  0.59034068     0.97600
N1627       N  0.71466179  0.48641630  0.93339687    -0.07500
N1628       N  0.69371179  0.47600952  0.91601372    -0.63800
N1629       N  0.77841976  0.01794999  0.93427059    -0.06300
N1630       N  0.80017279  0.02866633  0.91791491    -0.64500
N1631       N  0.78270893  0.48782484  0.93500124    -0.07000
N1632       N  0.80476372  0.47868892  0.91813030    -0.64100
N1633       N  0.71018860  0.01630718  0.93524325    -0.05900
N1634       N  0.68787139  0.02627563  0.91936527    -0.64800
Mn1635     Mn  0.74834797  0.46142328  0.95761115     1.10700
C1636       C  0.67452729  0.00150824  0.90921387     0.98200
C1637       C  0.81745034  0.50402176  0.90828453     0.98300
N1638       N  0.77986396  0.06522100  0.51396707    -0.07100
N1639       N  0.80209731  0.08089691  0.52457104    -0.62400
N1640       N  0.70933968  0.06457087  0.98458802    -0.06400
N1641       N  0.68654743  0.07990967  0.97483750    -0.59200
N1642       N  0.71170506  0.06529257  0.51389476    -0.07700
N1643       N  0.68939788  0.08069750  0.52455813    -0.62000
N1644       N  0.77766346  0.06638188  0.98379708    -0.06700
N1645       N  0.79951376  0.08283379  0.97352323    -0.59200
Mn1646     Mn  0.74553002  0.04109255  0.53855322     1.20200
Mn1647     Mn  0.74390345  0.04206352  0.95875163     1.10100
Cl1648     Cl  0.74520609  0.00191945  0.99806237    -0.87100
C1649       C  0.81335961  0.09268750  0.99814609     0.95200
C1650       C  0.67272432  0.08902127  0.99977372     0.95000
C1651       C  0.88038251  0.36084913  0.52340715    -0.27500
C1652       C  0.88537548  0.34543023  0.99540178    -0.15600
C1653       C  0.87000083  0.35369238  0.96954192     0.35100
C1654       C  0.84847144  0.37580164  0.97091102    -0.27000
C1655       C  0.84158095  0.38985216  0.99765469    -0.16200
C1656       C  0.85915866  0.38346133  0.52451534     0.36100
N1657       N  0.85380350  0.39837013  0.55189764    -0.90400
H1658       H  0.89184411  0.35478709  0.54353505     0.17300
H1659       H  0.83648657  0.38132081  0.95093296     0.17200
N1660       N  0.87538021  0.33917659  0.94194970    -0.89500
H1661       H  0.87373040  0.40781465  0.55896277     0.34600
H1662       H  0.84735579  0.38264210  0.56756299     0.39700
H1663       H  0.88177529  0.35514017  0.92649438     0.39300
H1664       H  0.85550019  0.32972736  0.93477002     0.34200
C1665       C  0.84896990  0.12435196  0.97047026    -0.27500
C1666       C  0.83874504  0.11355825  0.99774350    -0.15600
C1667       C  0.85211397  0.12479575  0.52688929     0.35100
C1668       C  0.87421660  0.14655927  0.52567481    -0.27000
C1669       C  0.88351366  0.15742478  0.99526331    -0.16200
C1670       C  0.87126299  0.14592047  0.96896975     0.36100
N1671       N  0.88106339  0.15614776  0.94064583    -0.90400
H1672       H  0.83933036  0.11639372  0.95004730     0.17300
H1673       H  0.88126820  0.15687541  0.54609291     0.17200
N1674       N  0.84005050  0.11653168  0.55498144    -0.89500
H1675       H  0.86277557  0.16462585  0.92933870     0.34600
H1676       H  0.88899880  0.13800537  0.92879082     0.39700
H1677       H  0.83132347  0.13542828  0.56494312     0.39300
H1678       H  0.85736438  0.10882619  0.56821006     0.34200
C1679       C  0.62388401  0.34984768  0.96826127    -0.27500
C1680       C  0.60946823  0.34261696  0.99481895    -0.15600
C1681       C  0.61706531  0.35821156  0.02074636     0.35100
C1682       C  0.63934978  0.37980006  0.01984442    -0.27000
C1683       C  0.65438124  0.38644555  0.99350179    -0.16200
C1684       C  0.64622558  0.37145824  0.96737252     0.36100
N1685       N  0.66094382  0.37748997  0.93998197    -0.90400
H1686       H  0.61831047  0.33823433  0.94808668     0.17300
H1687       H  0.64499941  0.39128640  0.04007374     0.17200
N1688       N  0.60227048  0.35233594  0.04813600    -0.89500
H1689       H  0.64369836  0.38841082  0.43005517     0.34600
H1690       H  0.67040904  0.35785278  0.93240615     0.39700
H1691       H  0.59255938  0.37195842  0.05545223     0.39300
H1692       H  0.61816075  0.34599777  0.06366084     0.34200
C1693       C  0.61698826  0.14558309  0.52549953    -0.27500
C1694       C  0.60275171  0.15353194  0.99788777    -0.15600
C1695       C  0.61378348  0.14101243  0.97151415     0.35100
C1696       C  0.63567881  0.11919632  0.97280081    -0.27000
C1697       C  0.64693024  0.10927206  0.99992189    -0.16200
C1698       C  0.63438227  0.12019717  0.02632513     0.36100
N1699       N  0.65217984  0.11708211  0.55488573    -0.90400
H1700       H  0.61040749  0.15654163  0.54572688     0.17300
H1701       H  0.64443715  0.11058629  0.95225696     0.17200
N1702       N  0.60331497  0.15059913  0.94324490    -0.89500
H1703       H  0.63529744  0.10941241  0.56874871     0.34600
H1704       H  0.66081945  0.13644665  0.56407785     0.39700
H1705       H  0.59482054  0.13218803  0.93217271     0.39300
H1706       H  0.62139123  0.15856173  0.93116483     0.34200
C1707       C  0.86048352  0.48026212  0.88336407    -0.27500
C1708       C  0.84217178  0.50512591  0.88655978    -0.15600
C1709       C  0.84721964  0.52989082  0.86797271     0.35100
C1710       C  0.86942014  0.52882087  0.84645778    -0.27000
C1711       C  0.88698916  0.50362310  0.84263451    -0.16200
C1712       C  0.88290076  0.47940339  0.86181208     0.36100
N1713       N  0.90163745  0.45402662  0.85976503    -0.90400
H1714       H  0.85738221  0.46127597  0.89763280     0.17300
H1715       H  0.87232228  0.54769802  0.83200473     0.17200
N1716       N  0.82963004  0.55611581  0.86947980    -0.89500
H1717       H  0.88823586  0.43554797  0.85598155     0.34600
H1718       H  0.91216105  0.45118806  0.88012711     0.39700
H1719       H  0.84923409  0.05935475  0.91008933     0.39300
H1720       H  0.82420878  0.06365906  0.88209888     0.34200
C1721       C  0.62671217  0.47644848  0.84581417    -0.27500
C1722       C  0.60987125  0.50210697  0.84174988    -0.15600
C1723       C  0.61544107  0.52693692  0.85970443     0.35100
C1724       C  0.63996465  0.02885746  0.87630916    -0.27000
C1725       C  0.64949220  0.00173181  0.88799149    -0.16200
C1726       C  0.63591137  0.97547764  0.87803218     0.36100
N1727       N  0.64391542  0.94743205  0.89022969    -0.90400
H1728       H  0.62283445  0.45720608  0.83211942     0.17300
H1729       H  0.64980880  0.04933691  0.88389250     0.17200
N1730       N  0.59791940  0.55311633  0.85693723    -0.89500
H1731       H  0.65155036  0.93403131  0.87304806     0.34600
H1732       H  0.62480850  0.93769856  0.89896569     0.39700
H1733       H  0.61209255  0.57074872  0.85205504     0.39300
H1734       H  0.58800320  0.55733720  0.87737852     0.34200
C1735       C  0.61769405  0.47442474  0.64274721    -0.27500
C1736       C  0.60627868  0.00282170  0.65270019    -0.14100
C1737       C  0.61955525  0.02919041  0.64248694     0.35100
C1738       C  0.64108558  0.02802199  0.62023419    -0.27000
C1739       C  0.64989390  0.00100635  0.60784581    -0.16200
C1740       C  0.63981516  0.47289083  0.62111417     0.36100
N1741       N  0.65011682  0.44458613  0.61151919    -0.90400
H1742       H  0.60924175  0.45400485  0.65201500     0.17300
H1743       H  0.65155510  0.04844004  0.61329826     0.17200
N1744       N  0.61197595  0.05718810  0.65507367    -0.89500
H1745       H  0.63206028  0.43285323  0.60302683     0.34600
H1746       H  0.65802192  0.43315649  0.62996341     0.39700
H1747       H  0.60442844  0.07088101  0.63808453     0.39300
H1748       H  0.63121332  0.06662852  0.66382694     0.34200
C1749       C  0.85586066  0.47612851  0.61842447    -0.27500
C1750       C  0.84168914  0.50278008  0.61137711    -0.15600
C1751       C  0.84675292  0.02746288  0.62659542     0.35100
C1752       C  0.86934742  0.02634872  0.64771472    -0.27000
C1753       C  0.88305372  0.99959431  0.65513954    -0.16200
C1754       C  0.87847840  0.47515486  0.63956441     0.36100
N1755       N  0.89234280  0.44751076  0.64617676    -0.90400
H1756       H  0.84918395  0.45576598  0.60774119     0.17300
H1757       H  0.87570378  0.04660147  0.65878808     0.17200
N1758       N  0.83286830  0.05519400  0.62041619    -0.89500
H1759       H  0.90142320  0.43915158  0.62664905     0.34600
H1760       H  0.87599084  0.43279238  0.65338358     0.39700
H1761       H  0.84917420  0.06996890  0.61321291     0.39300
H1762       H  0.82396771  0.06334945  0.64010857     0.34200
C1763       C  0.96901788  0.14402651  0.87655285    -0.27500
C1764       C  0.49358514  0.15708702  0.88407796    -0.15600
C1765       C  0.52010293  0.14530715  0.87254756     0.35100
C1766       C  0.51897035  0.12389355  0.85033665    -0.27000
C1767       C  0.99431903  0.11162180  0.84194676    -0.16200
C1768       C  0.96794840  0.12116963  0.85565945     0.36100
N1769       N  0.94005443  0.10782032  0.84856265    -0.90400
H1770       H  0.94853417  0.15137653  0.88658998     0.17300
H1771       H  0.53964886  0.11547957  0.84163454     0.17200
N1772       N  0.54839536  0.15508716  0.88299357    -0.89500
H1773       H  0.92590312  0.12432519  0.84079375     0.34600
H1774       H  0.93096044  0.09920840  0.86800189     0.39700
H1775       H  0.56020966  0.16369204  0.86506735     0.39300
H1776       H  0.55985027  0.13666804  0.89087134     0.34200
C1777       C  0.52306437  0.38043257  0.85403359    -0.27500
C1778       C  0.99643568  0.39078125  0.84278446    -0.15600
C1779       C  0.96981690  0.37815890  0.85326606     0.35100
C1780       C  0.97077933  0.35599177  0.87475504    -0.27000
C1781       C  0.99780353  0.34608382  0.88627405    -0.16200
C1782       C  0.52387581  0.35813963  0.87553264     0.36100
N1783       N  0.55134602  0.35131677  0.88975941    -0.90400
H1784       H  0.54347539  0.39167028  0.84826193     0.17300
H1785       H  0.95013053  0.34609630  0.88195822     0.17200
N1786       N  0.94169311  0.38727177  0.84191037    -0.89500
H1787       H  0.55915683  0.37048339  0.90004219     0.34600
H1788       H  0.56662531  0.34526497  0.87351174     0.39700
H1789       H  0.92886373  0.39469469  0.85961812     0.39300
H1790       H  0.93117187  0.36880163  0.83280444     0.34200
C1791       C  0.52606257  0.35536472  0.62003738    -0.27500
C1792       C  0.99716175  0.34410571  0.61072773    -0.15600
C1793       C  0.97078921  0.35802291  0.62006645     0.35100
C1794       C  0.97177568  0.37951482  0.64241748    -0.27000
C1795       C  0.50110085  0.38874243  0.65408427    -0.16200
C1796       C  0.52750203  0.37712649  0.64211071     0.36100
N1797       N  0.55583132  0.38701219  0.65237750    -0.90400
H1798       H  0.54654767  0.34638345  0.61145189     0.17300
H1799       H  0.95125830  0.38970116  0.64942702     0.17200
N1800       N  0.94287229  0.35048201  0.60705706    -0.89500
H1801       H  0.56756466  0.39546324  0.63432532     0.34600
H1802       H  0.56736945  0.36870579  0.66042824     0.39700
H1803       H  0.93373035  0.36964874  0.59799697     0.39300
H1804       H  0.92877787  0.34306904  0.62383980     0.34200
C1805       C  0.97219027  0.12740214  0.64836298    -0.27500
C1806       C  0.49569125  0.11335497  0.65351721    -0.15600
C1807       C  0.52124390  0.12009037  0.63652109     0.35100
C1808       C  0.52001913  0.14230018  0.61504763    -0.27000
C1809       C  0.49396816  0.15836552  0.60999013    -0.16200
C1810       C  0.97096574  0.14946530  0.62666664     0.36100
N1811       N  0.94289873  0.16207490  0.61920495    -0.90400
H1812       H  0.95169314  0.12053756  0.65877767     0.17300
H1813       H  0.53981578  0.14718731  0.60239345     0.17200
N1814       N  0.54869777  0.10475441  0.64016502    -0.89500
H1815       H  0.93369905  0.17108326  0.63837553     0.34600
H1816       H  0.92897949  0.14509181  0.61191715     0.39700
H1817       H  0.54491200  0.08212595  0.63761291     0.39300
H1818       H  0.55696879  0.10895596  0.66130801     0.34200
N1819       N  0.56027745  0.98755578  0.21608374    -0.07300
N1820       N  0.57754335  0.97735324  0.19495385    -0.59400
N1821       N  0.55971805  0.51587430  0.28279884    -0.07000
N1822       N  0.57568160  0.52597181  0.30510870    -0.61600
N1823       N  0.55803502  0.98818733  0.28402742    -0.06600
N1824       N  0.57471829  0.97892898  0.30613117    -0.59400
N1825       N  0.56079677  0.51614365  0.21445060    -0.06300
N1826       N  0.57674065  0.52649746  0.19231779    -0.61900
C1827       C  0.58654772  0.50194961  0.17840021     0.94900
C1828       C  0.58443634  0.00422368  0.31894095     0.94700
N1829       N  0.98236041  0.56329064  0.28091293    -0.07500
N1830       N  0.97201383  0.57947174  0.30281439    -0.60000
N1831       N  0.51136817  0.56478323  0.21337287    -0.05600
N1832       N  0.52172401  0.58098782  0.19138268    -0.61300
N1833       N  0.98353120  0.56290855  0.21295697    -0.07500
N1834       N  0.97399294  0.58005728  0.19142841    -0.60300
N1835       N  0.51005784  0.56452467  0.28159329    -0.05300
N1836       N  0.51967074  0.58045318  0.30403068    -0.61300
Mn1837     Mn  0.53625192  0.54110310  0.24809648     1.18400
C1838       C  0.99665900  0.58887951  0.31698346     0.97000
C1839       C  0.49713045  0.59063427  0.17725418     0.97600
N1840       N  0.50961370  0.93773878  0.28235597    -0.07500
N1841       N  0.51929539  0.92127542  0.30437140    -0.63800
N1842       N  0.98206959  0.93723943  0.21507634    -0.06300
N1843       N  0.97233751  0.91919339  0.19438221    -0.64500
N1844       N  0.51205367  0.93791808  0.21405321    -0.07000
N1845       N  0.52323294  0.92265467  0.19183026    -0.64100
N1846       N  0.98043011  0.93897113  0.28250730    -0.05900
N1847       N  0.96971000  0.92214382  0.30374783    -0.64800
Mn1848     Mn  0.53570952  0.96210954  0.24928397     1.10700
C1849       C  0.99407727  0.91217417  0.31789831     0.98200
C1850       C  0.49915139  0.91303604  0.17675906     0.98300
N1851       N  0.93342207  0.51417230  0.21274234    -0.07100
N1852       N  0.91684236  0.52412737  0.19093127    -0.62400
N1853       N  0.93110557  0.98754115  0.28024153    -0.06400
N1854       N  0.91404790  0.97748790  0.30164942    -0.59200
N1855       N  0.93232775  0.51549734  0.28079062    -0.07700
N1856       N  0.91539047  0.52628029  0.30201040    -0.62000
N1857       N  0.93258953  0.98609986  0.21280558    -0.06700
N1858       N  0.91481408  0.97549400  0.19226154    -0.59200
Mn1859     Mn  0.95726480  0.53967645  0.24673029     1.20200
Mn1860     Mn  0.95593502  0.96182920  0.24758951     1.10100
Cl1861     Cl  0.49646936  0.50122783  0.24714767    -0.87100
C1862       C  0.90644028  0.49931753  0.17779814     0.95200
C1863       C  0.90326379  0.00217698  0.31447009     0.95000
N1864       N  0.98127264  0.71744352  0.06250599    -0.07300
N1865       N  0.97115141  0.69593704  0.07945364    -0.59400
N1866       N  0.51147558  0.78540315  0.06167934    -0.07000
N1867       N  0.52206593  0.80772669  0.07725571    -0.61600
N1868       N  0.98115505  0.78518161  0.06221698    -0.06600
N1869       N  0.97086678  0.80616651  0.07956912    -0.59400
N1870       N  0.50954180  0.71703367  0.06121462    -0.06300
N1871       N  0.51904871  0.69456281  0.07709782    -0.61900
C1872       C  0.49394827  0.68136847  0.08679922     0.94900
C1873       C  0.99553967  0.81905098  0.09061184     0.94700
N1874       N  0.56044193  0.78431912  0.48169325    -0.07500
N1875       N  0.57834919  0.80506394  0.47150374    -0.60000
N1876       N  0.55958223  0.71603079  0.01279243    -0.05600
N1877       N  0.57572842  0.69386348  0.02273540    -0.61300
N1878       N  0.56049399  0.71678152  0.48336377    -0.07500
N1879       N  0.57798420  0.69551114  0.47396111    -0.60300
N1880       N  0.56100869  0.78403201  0.01345003    -0.05300
N1881       N  0.57727072  0.80580328  0.02406968    -0.61300
Mn1882     Mn  0.53611731  0.75052009  0.03808837     1.18400
C1883       C  0.58878280  0.81824630  0.49627843     0.97000
C1884       C  0.58836212  0.68314738  0.49912469     0.97600
N1885       N  0.93200447  0.78522786  0.01235518    -0.07500
N1886       N  0.91566036  0.80749128  0.02180074    -0.63800
N1887       N  0.93227854  0.71710533  0.47993821    -0.06300
N1888       N  0.91554946  0.69544475  0.46980862    -0.64500
N1889       N  0.93241391  0.71711662  0.01324586    -0.07000
N1890       N  0.91545435  0.69576783  0.02368992    -0.64100
N1891       N  0.93267635  0.78501452  0.47955811    -0.05900
N1892       N  0.91591845  0.80650245  0.46907051    -0.64800
Mn1893     Mn  0.95597125  0.75133352  0.03826200     1.10700
C1894       C  0.90542741  0.82015736  0.49355465     0.98200
C1895       C  0.90502306  0.68237212  0.49458022     0.98300
N1896       N  0.51134499  0.71503790  0.43417501    -0.07100
N1897       N  0.52146280  0.69254215  0.41865103    -0.62400
N1898       N  0.98283398  0.78404975  0.43161434    -0.06400
N1899       N  0.97269998  0.80576619  0.41518960    -0.59200
N1900       N  0.51125912  0.78322633  0.43247318    -0.07700
N1901       N  0.52143427  0.80517626  0.41613890    -0.62000
N1902       N  0.98236861  0.71620147  0.43159522    -0.06700
N1903       N  0.97256177  0.69411900  0.41519127    -0.59200
Mn1904     Mn  0.53657141  0.74982325  0.45709402     1.20200
Mn1905     Mn  0.95686458  0.75053674  0.45492896     1.10100
Cl1906     Cl  0.49652912  0.75053221  0.49670606    -0.87100
C1907       C  0.49666227  0.67862788  0.40913372     0.95200
C1908       C  0.99741965  0.81956938  0.40551317     0.95000
N1909       N  0.78005366  0.93895626  0.48244451    -0.07300
N1910       N  0.80161475  0.92223190  0.47205922    -0.59400
N1911       N  0.71288975  0.93738674  0.01239094    -0.07000
N1912       N  0.69143756  0.92036796  0.02259629    -0.61600
N1913       N  0.71198550  0.93873452  0.48223427    -0.06600
N1914       N  0.69092084  0.92155662  0.47159214    -0.59400
N1915       N  0.78107354  0.93911938  0.01165083    -0.06300
N1916       N  0.80322519  0.92303702  0.02167403    -0.61900
C1917       C  0.81489661  0.91138151  0.49660642     0.94900
C1918       C  0.67776706  0.91030337  0.49597977     0.94700
N1919       N  0.71054520  0.51326289  0.06043589    -0.07500
N1920       N  0.68805803  0.52338373  0.07588393    -0.60000
N1921       N  0.77971529  0.98765727  0.06105397    -0.05600
N1922       N  0.80079344  0.97773253  0.07848485    -0.61300
N1923       N  0.77858881  0.51415064  0.06245301    -0.07500
N1924       N  0.80008352  0.52462460  0.07912522    -0.60300
N1925       N  0.71211648  0.98596719  0.06199517    -0.05300
N1926       N  0.69131258  0.97522593  0.07948597    -0.61300
Mn1927     Mn  0.74645572  0.96182603  0.03737452     1.18400
C1928       C  0.67391384  0.49876941  0.08523170     0.97000
C1929       C  0.81309916  0.00256093  0.08963792     0.97600
N1930       N  0.71147189  0.98899747  0.43441929    -0.07500
N1931       N  0.68936900  0.97913492  0.41806850    -0.63800
N1932       N  0.77966990  0.51821810  0.43583431    -0.06300
N1933       N  0.80068606  0.52936822  0.41877131    -0.64500
N1934       N  0.77964446  0.98918770  0.43410365    -0.07000
N1935       N  0.80097974  0.97949558  0.41675602    -0.64100
N1936       N  0.71118345  0.51563177  0.43718723    -0.05900
N1937       N  0.68872218  0.52508900  0.42105605    -0.64800
Mn1938     Mn  0.74581789  0.96332012  0.45759698     1.10700
C1939       C  0.67606829  0.50001044  0.41055337     0.98200
C1940       C  0.81423122  0.00444233  0.40675684     0.98300
N1941       N  0.77914784  0.56418135  0.01456944    -0.07100
N1942       N  0.80030818  0.58105536  0.02555254    -0.62400
N1943       N  0.71147579  0.56440115  0.48725663    -0.06400
N1944       N  0.69032043  0.58199445  0.47781964    -0.59200
N1945       N  0.71124012  0.56300319  0.01301430    -0.07700
N1946       N  0.68930707  0.57914916  0.02332269    -0.62000
N1947       N  0.77914938  0.56564331  0.48572273    -0.06700
N1948       N  0.80062728  0.58233474  0.47517815    -0.59200
Mn1949     Mn  0.74492088  0.53922060  0.03831854     1.20200
Mn1950     Mn  0.74519034  0.54163324  0.46082610     1.10100
Cl1951     Cl  0.74706074  0.50143148  0.50011065    -0.87100
C1952       C  0.81472697  0.59216979  0.49961940     0.95200
C1953       C  0.67810890  0.59266644  0.50292687     0.95000
C1954       C  0.87583426  0.85864374  0.02278188    -0.27500
C1955       C  0.88376887  0.84497725  0.49362864    -0.15600
C1956       C  0.87257609  0.85765514  0.46737943     0.35100
C1957       C  0.85068589  0.87966076  0.46889530    -0.27000
C1958       C  0.83956218  0.88956386  0.49616079    -0.16200
C1959       C  0.85474693  0.88136076  0.02355154     0.36100
N1960       N  0.84617759  0.89341306  0.05151293    -0.90400
H1961       H  0.88452838  0.85039872  0.04350024     0.17300
H1962       H  0.84208785  0.88871102  0.44847502     0.17200
N1963       N  0.88307659  0.84821534  0.43906904    -0.89500
H1964       H  0.86512606  0.90178302  0.06183650     0.34600
H1965       H  0.83782479  0.87625032  0.06456747     0.39700
H1966       H  0.89176234  0.86661971  0.42805904     0.39300
H1967       H  0.86498535  0.84044982  0.42693405     0.34200
C1968       C  0.85057229  0.62267295  0.47128193    -0.27500
C1969       C  0.83956753  0.61344938  0.49882916    -0.15600
C1970       C  0.84840701  0.62746765  0.02804428     0.35100
C1971       C  0.87065759  0.64912271  0.02675627    -0.27000
C1972       C  0.88363648  0.65763580  0.49520752    -0.16200
C1973       C  0.87241217  0.64458758  0.46922006     0.36100
N1974       N  0.88273579  0.65362576  0.44067556    -0.90400
H1975       H  0.84186166  0.61324002  0.45106998     0.17300
H1976       H  0.87727751  0.65998068  0.04703761     0.17200
N1977       N  0.83527480  0.62027186  0.05595981    -0.89500
H1978       H  0.86456829  0.66115157  0.42852660     0.34600
H1979       H  0.89132202  0.63510135  0.42991592     0.39700
H1980       H  0.82624347  0.63955388  0.06487477     0.39300
H1981       H  0.85204109  0.61303307  0.07011151     0.34200
C1982       C  0.61768568  0.85713238  0.47022791    -0.27500
C1983       C  0.61118848  0.84209688  0.49654038    -0.15600
C1984       C  0.62655528  0.84981969  0.52258642     0.35100
C1985       C  0.64758259  0.87254703  0.52191992    -0.27000
C1986       C  0.65417672  0.88756845  0.49561723    -0.16200
C1987       C  0.63897344  0.87971275  0.46952461     0.36100
N1988       N  0.64473048  0.89468176  0.44226951    -0.90400
H1989       H  0.60611508  0.85148129  0.45002936     0.17300
H1990       H  0.65924924  0.87796244  0.54212072     0.17200
N1991       N  0.62156468  0.83421910  0.54968507    -0.89500
H1992       H  0.63572136  0.89311880  0.93073950     0.34600
H1993       H  0.65184366  0.87905409  0.42684259     0.39700
H1994       H  0.61488861  0.84945567  0.56568351     0.39300
H1995       H  0.64165839  0.82502592  0.55648240     0.34200
C1996       C  0.61702749  0.64401574  0.02459839    -0.27500
C1997       C  0.61032549  0.65905792  0.50021851    -0.15600
C1998       C  0.61831463  0.64317180  0.47469369     0.35100
C1999       C  0.64017645  0.62148870  0.47638684    -0.27000
C2000       C  0.65426628  0.61492315  0.50317088    -0.16200
C2001       C  0.64584628  0.63029156  0.52895713     0.36100
N2002       N  0.64864520  0.61131279  0.05367263    -0.90400
H2003       H  0.60829765  0.65243033  0.04523405     0.17300
H2004       H  0.64607554  0.60970065  0.45641755     0.17200
N2005       N  0.60409576  0.64856927  0.44696940    -0.89500
H2006       H  0.63031323  0.60267165  0.06487744     0.34600
H2007       H  0.65675075  0.62921077  0.06583386     0.39700
H2008       H  0.59451443  0.62874966  0.43995832     0.39300
H2009       H  0.62032294  0.65457437  0.43159997     0.34200
C2010       C  0.84699561  0.97751916  0.37207527    -0.27500
C2011       C  0.83847659  0.00459678  0.38455571    -0.15600
C2012       C  0.85292200  0.03075713  0.37492038     0.35100
C2013       C  0.87412419  0.02928401  0.35242053    -0.27000
C2014       C  0.88182584  0.00229536  0.33930259    -0.16200
C2015       C  0.86848784  0.97608528  0.34981402     0.36100
N2016       N  0.87634325  0.94788418  0.33786206    -0.90400
H2017       H  0.83667283  0.95713242  0.37931000     0.17300
H2018       H  0.88456212  0.04958046  0.34508076     0.17200
N2019       N  0.84691109  0.05913961  0.38747852    -0.89500
H2020       H  0.85719981  0.93802481  0.32935473     0.34600
H2021       H  0.88411554  0.93467207  0.35512786     0.39700
H2022       H  0.85257253  0.55801172  0.41282443     0.39300
H2023       H  0.82744333  0.56589913  0.38582818     0.34200
C2024       C  0.61087985  0.97999631  0.36058628    -0.27500
C2025       C  0.60616751  0.00536155  0.34344888    -0.15600
C2026       C  0.62317498  0.03094456  0.34929487     0.35100
C2027       C  0.63708204  0.52615033  0.38126336    -0.27000
C2028       C  0.65087805  0.49948596  0.38915940    -0.16200
C2029       C  0.64111154  0.47313993  0.37548820     0.36100
N2030       N  0.65359907  0.44521815  0.38348178    -0.90400
H2031       H  0.59761468  0.96037337  0.35685898     0.17300
H2032       H  0.64368596  0.54656989  0.39187340     0.17200
N2033       N  0.61898184  0.05743875  0.33252111    -0.89500
H2034       H  0.66286137  0.43578247  0.36454356     0.34600
H2035       H  0.63642808  0.43147399  0.39070993     0.39700
H2036       H  0.63902384  0.06276545  0.32220482     0.39300
H2037       H  0.61375578  0.07446754  0.34719095     0.34200
C2038       C  0.62195081  0.97456010  0.14832353    -0.27500
C2039       C  0.60670408  0.50201144  0.15255244    -0.14100
C2040       C  0.62212886  0.52771378  0.14384660     0.35100
C2041       C  0.64283369  0.52624618  0.12090500    -0.27000
C2042       C  0.64896180  0.49950786  0.10647187    -0.16200
C2043       C  0.64385609  0.97318423  0.12641282     0.36100
N2044       N  0.65647854  0.94517838  0.11895533    -0.90400
H2045       H  0.61521904  0.95426826  0.15913612     0.17300
H2046       H  0.65500741  0.54610588  0.11522689     0.17200
N2047       N  0.61778333  0.55520786  0.15885399    -0.89500
H2048       H  0.63939787  0.93124948  0.11187627     0.34600
H2049       H  0.66565994  0.93608109  0.13809374     0.39700
H2050       H  0.61104548  0.57089913  0.14331769     0.39300
H2051       H  0.63813580  0.56202242  0.16753890     0.34200
C2052       C  0.85035199  0.97552947  0.11924059    -0.27500
C2053       C  0.83666382  0.00242525  0.11214902    -0.15600
C2054       C  0.84662898  0.52650867  0.12618086     0.35100
C2055       C  0.86923472  0.52562653  0.14731840    -0.27000
C2056       C  0.88451351  0.49939722  0.15342840    -0.16200
C2057       C  0.87230628  0.97404148  0.14098174     0.36100
N2058       N  0.88549332  0.94612804  0.14782461    -0.90400
H2059       H  0.84397220  0.95539833  0.10795430     0.17300
H2060       H  0.87422020  0.54555485  0.15960416     0.17200
N2061       N  0.83098869  0.55359881  0.12154564    -0.89500
H2062       H  0.89490117  0.93766856  0.12850069     0.34600
H2063       H  0.86868198  0.93169176  0.15455179     0.39700
H2064       H  0.84630727  0.56976154  0.11520618     0.39300
H2065       H  0.82160431  0.56004758  0.14164285     0.34200
C2066       C  0.97175731  0.64003870  0.37884691    -0.27500
C2067       C  0.49622946  0.65343016  0.38820059    -0.15600
C2068       C  0.52239081  0.63925413  0.37884612     0.35100
C2069       C  0.52114125  0.61808061  0.35630074    -0.27000
C2070       C  0.99680928  0.61001238  0.34193223    -0.16200
C2071       C  0.97085361  0.61716005  0.35784405     0.36100
N2072       N  0.94370072  0.60135057  0.35264082    -0.90400
H2073       H  0.95168774  0.64593893  0.39053267     0.17300
H2074       H  0.54158479  0.60792985  0.34902200     0.17200
N2075       N  0.55037583  0.64629644  0.39192192    -0.89500
H2076       H  0.92667754  0.60962381  0.36589903     0.34600
H2077       H  0.94701157  0.57946841  0.35924511     0.39700
H2078       H  0.56451877  0.65383144  0.37523433     0.39300
H2079       H  0.55925383  0.62678439  0.40045776     0.34200
C2080       C  0.52127680  0.88019927  0.35407882    -0.27500
C2081       C  0.99379985  0.89023556  0.34214213    -0.15600
C2082       C  0.96801772  0.87409386  0.34965937     0.35100
C2083       C  0.96993410  0.85143242  0.37065836    -0.27000
C2084       C  0.99679680  0.84468059  0.38466955    -0.16200
C2085       C  0.52262870  0.85815074  0.37582661     0.36100
N2086       N  0.55078894  0.85009722  0.38789648    -0.90400
H2087       H  0.54177042  0.89017633  0.34656072     0.17300
H2088       H  0.95024864  0.83870789  0.37579401     0.17200
N2089       N  0.94014712  0.88005629  0.33553996    -0.89500
H2090       H  0.56035163  0.86895326  0.39725889     0.34600
H2091       H  0.56437987  0.84312652  0.37056530     0.39700
H2092       H  0.93299005  0.90070093  0.34294580     0.39300
H2093       H  0.92399759  0.86488878  0.34228319     0.34200
C2094       C  0.52517054  0.85697277  0.11945434    -0.27500
C2095       C  0.99562591  0.84264685  0.11324627    -0.15600
C2096       C  0.96933800  0.85648729  0.12278046     0.35100
C2097       C  0.97053412  0.87778197  0.14519085    -0.27000
C2098       C  0.49997147  0.89287357  0.15074013    -0.16200
C2099       C  0.52630790  0.87895778  0.14133619     0.36100
N2100       N  0.55422674  0.88639836  0.15437571    -0.90400
H2101       H  0.54547657  0.84579390  0.11343312     0.17300
H2102       H  0.95008650  0.88809281  0.15222105     0.17200
N2103       N  0.94133291  0.84917998  0.10982336    -0.89500
H2104       H  0.56842105  0.89355127  0.13755732     0.34600
H2105       H  0.56319368  0.86724523  0.16362526     0.39700
H2106       H  0.93223548  0.86846382  0.10097256     0.39300
H2107       H  0.92727604  0.84167883  0.12660094     0.34200
C2108       C  0.97192030  0.62309182  0.14410727    -0.27500
C2109       C  0.49677840  0.61167975  0.15195001    -0.15600
C2110       C  0.52276128  0.62098165  0.13696258     0.35100
C2111       C  0.52092068  0.64271537  0.11505574    -0.27000
C2112       C  0.49381703  0.65590707  0.10755086    -0.16200
C2113       C  0.97022757  0.64545765  0.12278734     0.36100
N2114       N  0.94174796  0.65564956  0.11341260    -0.90400
H2115       H  0.95143715  0.61418559  0.15288158     0.17300
H2116       H  0.54117891  0.64986465  0.10435695     0.17200
N2117       N  0.55141254  0.60914282  0.14342297    -0.89500
H2118       H  0.93033735  0.66330764  0.13198284     0.34600
H2119       H  0.93004380  0.63766506  0.10479374     0.39700
H2120       H  0.55068447  0.58619963  0.14089093     0.39300
H2121       H  0.55705830  0.61445936  0.16514826     0.34200
N2122       N  0.56008717  0.98722810  0.71401583    -0.07300
N2123       N  0.57636920  0.97747749  0.69187357    -0.59400
N2124       N  0.56061756  0.51679310  0.78294430    -0.07000
N2125       N  0.57721523  0.52707940  0.80463396    -0.61600
N2126       N  0.55941551  0.98787678  0.78210391    -0.06600
N2127       N  0.57577579  0.97832068  0.80424203    -0.59400
N2128       N  0.56170883  0.51665163  0.71493099    -0.06300
N2129       N  0.57725719  0.52684036  0.69243375    -0.61900
C2130       C  0.58692440  0.50214595  0.67866576     0.94900
C2131       C  0.58507169  0.00334585  0.81773364     0.94700
N2132       N  0.98397326  0.56601608  0.78117565    -0.07500
N2133       N  0.97379363  0.58303018  0.80251073    -0.60000
N2134       N  0.51280445  0.56546812  0.71411848    -0.05600
N2135       N  0.52337911  0.58273837  0.69311662    -0.61300
N2136       N  0.98413129  0.56506847  0.71314935    -0.07500
N2137       N  0.97403564  0.58151052  0.69129216    -0.60300
N2138       N  0.51094470  0.56522290  0.78212402    -0.05300
N2139       N  0.52025279  0.58198617  0.80411393    -0.61300
Mn2140     Mn  0.53729496  0.54175249  0.74859236     1.18400
C2141       C  0.99852450  0.59348584  0.81579375     0.97000
C2142       C  0.49893089  0.59287260  0.67919448     0.97600
N2143       N  0.51164665  0.93754064  0.78214773    -0.07500
N2144       N  0.52180579  0.92128506  0.80411704    -0.63800
N2145       N  0.98150319  0.93536266  0.71456239    -0.06300
N2146       N  0.97163758  0.91725050  0.69389825    -0.64500
N2147       N  0.51243491  0.93627704  0.71443225    -0.07000
N2148       N  0.52308919  0.91866003  0.69380099    -0.64100
N2149       N  0.98050805  0.93589649  0.78213621    -0.05900
N2150       N  0.96990665  0.91863456  0.80309661    -0.64800
Mn2151     Mn  0.53671439  0.96157822  0.74814278     1.10700
C2152       C  0.99441929  0.90802700  0.81650603     0.98200
C2153       C  0.49859672  0.90730196  0.68077735     0.98300
N2154       N  0.93507133  0.51603438  0.71392167    -0.07100
N2155       N  0.91884850  0.52603968  0.69191894    -0.62400
N2156       N  0.93166958  0.98550801  0.78183770    -0.06400
N2157       N  0.91525460  0.97566127  0.80391220    -0.59200
N2158       N  0.93468321  0.51684776  0.78188140    -0.07700
N2159       N  0.91841202  0.52737522  0.80367455    -0.62000
N2160       N  0.93265186  0.98512655  0.71383398    -0.06700
N2161       N  0.91556579  0.97487201  0.69255428    -0.59200
Mn2162     Mn  0.95873297  0.54166445  0.74753801     1.20200
Mn2163     Mn  0.95584777  0.95986536  0.74806641     1.10100
Cl2164     Cl  0.49806410  0.50134755  0.74755663    -0.87100
C2165       C  0.90878230  0.50124485  0.67858265     0.95200
C2166       C  0.90537847  0.00050831  0.81732324     0.95000
N2167       N  0.98016507  0.71653217  0.55887591    -0.07300
N2168       N  0.96969238  0.69503271  0.57569865    -0.59400
N2169       N  0.51069442  0.78563201  0.55966091    -0.07000
N2170       N  0.52083798  0.80662975  0.57712829    -0.61600
N2171       N  0.98112868  0.78441899  0.55898511    -0.06600
N2172       N  0.97084838  0.80494453  0.57690601    -0.59400
N2173       N  0.51096886  0.71801309  0.56109356    -0.06300
N2174       N  0.52117547  0.69711048  0.57863733    -0.61900
C2175       C  0.49639539  0.68406166  0.58935153     0.94900
C2176       C  0.99545132  0.81733154  0.58866129     0.94700
N2177       N  0.56140725  0.78428469  0.98441619    -0.07500
N2178       N  0.57797306  0.80624518  0.97469409    -0.60000
N2179       N  0.56025310  0.71753064  0.51238493    -0.05600
N2180       N  0.57756487  0.69685849  0.52333687    -0.61300
N2181       N  0.55991733  0.71645302  0.98375004    -0.07500
N2182       N  0.57619664  0.69467720  0.97338480    -0.60300
N2183       N  0.55995777  0.78476209  0.51072828    -0.05300
N2184       N  0.57744390  0.80570197  0.52088498    -0.61300
Mn2185     Mn  0.53605155  0.75153055  0.53654454     1.18400
C2186       C  0.58767179  0.81957826  0.99965334     0.97000
C2187       C  0.58589262  0.68061816  0.99786687     0.97600
N2188       N  0.93248938  0.78528848  0.50861655    -0.07500
N2189       N  0.91559207  0.80693263  0.51841511    -0.63800
N2190       N  0.93285353  0.71652788  0.98421199    -0.06300
N2191       N  0.91610379  0.69476047  0.97432968    -0.64500
N2192       N  0.93193555  0.71743346  0.50895950    -0.07000
N2193       N  0.91504622  0.69600725  0.51919425    -0.64100
N2194       N  0.93217790  0.78456030  0.98331860    -0.05900
N2195       N  0.91606312  0.80630394  0.97247052    -0.64800
Mn2196     Mn  0.95574912  0.75100840  0.53445626     1.10700
C2197       C  0.90588866  0.82059108  0.99666215     0.98200
C2198       C  0.90548419  0.68185526  0.99919060     0.98300
N2199       N  0.51168378  0.71741385  0.93398373    -0.07100
N2200       N  0.52148377  0.69529614  0.91770317    -0.62400
N2201       N  0.98186191  0.78493454  0.93538678    -0.06400
N2202       N  0.97144560  0.80616739  0.91844847    -0.59200
N2203       N  0.51340031  0.78568055  0.93443880    -0.07700
N2204       N  0.52402484  0.80769037  0.91841126    -0.62000
N2205       N  0.98292130  0.71719206  0.93486355    -0.06700
N2206       N  0.97356214  0.69601042  0.91710576    -0.59200
Mn2207     Mn  0.53737034  0.75096840  0.95843295     1.20200
Mn2208     Mn  0.95674625  0.75059369  0.95878003     1.10100
Cl2209     Cl  0.49703752  0.75160392  0.99771069    -0.87100
C2210       C  0.49649301  0.68233146  0.90734198     0.95200
C2211       C  0.99604126  0.82032233  0.90885201     0.95000
N2212       N  0.78101026  0.93924807  0.98260713    -0.07300
N2213       N  0.80316764  0.92318186  0.97233807    -0.59400
N2214       N  0.71192037  0.93804731  0.51125833    -0.07000
N2215       N  0.69081988  0.92034072  0.52096025    -0.61600
N2216       N  0.71273513  0.93765623  0.98337006    -0.06600
N2217       N  0.69118114  0.92083648  0.97322193    -0.59400
N2218       N  0.77993516  0.93839624  0.51150492    -0.06300
N2219       N  0.80138282  0.92129323  0.52140009    -0.61900
C2220       C  0.81701727  0.91325984  0.99700007     0.94900
C2221       C  0.67798398  0.91021670  0.99788251     0.94700
N2222       N  0.71350268  0.51440735  0.56382362    -0.07500
N2223       N  0.69114038  0.52411751  0.57973528    -0.60000
N2224       N  0.77928430  0.98661879  0.56194885    -0.05600
N2225       N  0.80043901  0.97648157  0.57931274    -0.61300
N2226       N  0.78126697  0.51600119  0.56354620    -0.07500
N2227       N  0.80266007  0.52666102  0.58022751    -0.60300
N2228       N  0.71112813  0.98646217  0.56103654    -0.05300
N2229       N  0.68879926  0.97616188  0.57684541    -0.61300
Mn2230     Mn  0.74559882  0.96166033  0.53714177     1.18400
C2231       C  0.67764027  0.49917894  0.58923555     0.97000
C2232       C  0.81323302  0.00124114  0.59030766     0.97600
N2233       N  0.71072802  0.98728669  0.93488981    -0.07500
N2234       N  0.68872266  0.97694038  0.91869233    -0.63800
N2235       N  0.78187087  0.51683930  0.93552825    -0.06300
N2236       N  0.80326126  0.52797392  0.91906433    -0.64500
N2237       N  0.77898748  0.98893625  0.93408204    -0.07000
N2238       N  0.80107045  0.97937460  0.91764224    -0.64100
N2239       N  0.71387615  0.51542359  0.93403007    -0.05900
N2240       N  0.69231799  0.52536579  0.91709748    -0.64800
Mn2241     Mn  0.74586990  0.96256819  0.95797616     1.10700
C2242       C  0.67992078  0.50050784  0.90599003     0.98200
C2243       C  0.81426919  0.00435194  0.90770079     0.98300
N2244       N  0.77992323  0.56521099  0.51474679    -0.07100
N2245       N  0.80191913  0.58168788  0.52455299    -0.62400
N2246       N  0.71164413  0.56366146  0.98400356    -0.06400
N2247       N  0.68992449  0.58036846  0.97397766    -0.59200
N2248       N  0.71231112  0.56432990  0.51627238    -0.07700
N2249       N  0.69176063  0.58187435  0.52718733    -0.62000
N2250       N  0.77977350  0.56476088  0.98555505    -0.06700
N2251       N  0.80143060  0.58194983  0.97618364    -0.59200
Mn2252     Mn  0.74680078  0.54061264  0.54031497     1.20200
Mn2253     Mn  0.74675096  0.54086185  0.95909634     1.10100
Cl2254     Cl  0.74647321  0.50029778  0.99802375    -0.87100
C2255       C  0.81413450  0.59196260  0.00134545     0.95200
C2256       C  0.67604976  0.58982224  0.99879202     0.95000
C2257       C  0.87334846  0.85562890  0.52085756    -0.27500
C2258       C  0.88531948  0.84630421  0.99596907    -0.15600
C2259       C  0.87431405  0.85830892  0.96928866     0.35100
C2260       C  0.85278388  0.88071853  0.97006614    -0.27000
C2261       C  0.84212559  0.89190671  0.99700199    -0.16200
C2262       C  0.85157262  0.87764714  0.52238707     0.36100
N2263       N  0.84163183  0.88750341  0.55076020    -0.90400
H2264       H  0.88181278  0.84654495  0.54131651     0.17300
H2265       H  0.84399509  0.88896048  0.94938471     0.17200
N2266       N  0.88461820  0.84775474  0.94129716    -0.89500
H2267       H  0.85992744  0.89565672  0.56234858     0.34600
H2268       H  0.83333330  0.86925482  0.56228697     0.39700
H2269       H  0.89367339  0.86561247  0.92971961     0.39300
H2270       H  0.86637944  0.83994959  0.92938965     0.34200
C2271       C  0.85261558  0.62101295  0.97501579    -0.27500
C2272       C  0.83887815  0.61351199  0.00182457    -0.15600
C2273       C  0.85164494  0.62569385  0.52481518     0.35100
C2274       C  0.87346131  0.64755698  0.52274575    -0.27000
C2275       C  0.88369041  0.65730540  0.99973790    -0.16200
C2276       C  0.87484339  0.64259315  0.97372901     0.36100
N2277       N  0.88821012  0.64944104  0.94584705    -0.90400
H2278       H  0.84592263  0.61028276  0.95469075     0.17300
H2279       H  0.88205501  0.65702659  0.54298737     0.17200
N2280       N  0.84162886  0.61646783  0.55340691    -0.89500
H2281       H  0.87153407  0.65627733  0.93138121     0.34600
H2282       H  0.89753547  0.63010572  0.93737741     0.39700
H2283       H  0.83345791  0.63497280  0.56451879     0.39300
H2284       H  0.85987643  0.60855092  0.56517424     0.34200
C2285       C  0.62020503  0.85455676  0.97274806    -0.27500
C2286       C  0.60884516  0.84458017  0.99982470    -0.15600
C2287       C  0.61889494  0.85783965  0.02621972     0.35100
C2288       C  0.64098680  0.87964756  0.02504063    -0.27000
C2289       C  0.65320607  0.88873058  0.99795336    -0.16200
C2290       C  0.64216641  0.87635178  0.97154222     0.36100
N2291       N  0.65343939  0.88532796  0.94334675    -0.90400
H2292       H  0.61251141  0.84497551  0.95220218     0.17300
H2293       H  0.64883137  0.88920394  0.04554419     0.17200
N2294       N  0.60699550  0.84922196  0.05428377    -0.89500
H2295       H  0.62469613  0.90336659  0.43475986     0.34600
H2296       H  0.66207359  0.86672125  0.93276387     0.39700
H2297       H  0.59800267  0.86794206  0.06436054     0.39300
H2298       H  0.62441776  0.84169619  0.06746414     0.34200
C2299       C  0.62401436  0.65218916  0.52722815    -0.27500
C2300       C  0.60706253  0.65558202  0.99761630    -0.15600
C2301       C  0.61856621  0.64387810  0.97104944     0.35100
C2302       C  0.64038363  0.62192947  0.97202223    -0.27000
C2303       C  0.65118579  0.61119749  0.99901157    -0.16200
C2304       C  0.63885961  0.62205940  0.02556785     0.36100
N2305       N  0.65958301  0.62420024  0.55681233    -0.90400
H2306       H  0.61810214  0.66411230  0.54711512     0.17300
H2307       H  0.64926444  0.61367227  0.95138516     0.17200
N2308       N  0.60859910  0.65436294  0.94292253    -0.89500
H2309       H  0.64304945  0.61792647  0.57174371     0.34600
H2310       H  0.66923578  0.64373213  0.56455140     0.39700
H2311       H  0.60052843  0.63628021  0.93103271     0.39300
H2312       H  0.62687045  0.66283874  0.93150931     0.34200
C2313       C  0.84948855  0.97695059  0.87584103    -0.27500
C2314       C  0.83956997  0.00431747  0.88659379    -0.15600
C2315       C  0.85364496  0.03039304  0.87623931     0.35100
C2316       C  0.87559444  0.02847787  0.85441728    -0.27000
C2317       C  0.88426014  0.00113483  0.84255212    -0.16200
C2318       C  0.87161494  0.97510161  0.85421079     0.36100
N2319       N  0.88076209  0.94662369  0.84398124    -0.90400
H2320       H  0.83966332  0.95660212  0.88382474     0.17300
H2321       H  0.88555085  0.04872483  0.84632044     0.17200
N2322       N  0.84628825  0.05912928  0.88717696    -0.89500
H2323       H  0.86218980  0.93565039  0.83555910     0.34600
H2324       H  0.88854424  0.93462829  0.86210349     0.39700
H2325       H  0.83232587  0.56573604  0.89028626     0.39300
H2326       H  0.80742018  0.55047590  0.86620613     0.34200
C2327       C  0.61440219  0.97669915  0.85575128    -0.27500
C2328       C  0.60590632  0.00368941  0.84305750    -0.15600
C2329       C  0.61844645  0.03008922  0.85401105     0.35100
C2330       C  0.63819264  0.52586955  0.88076423    -0.27000
C2331       C  0.65542353  0.50033891  0.88438101    -0.16200
C2332       C  0.64942171  0.47536307  0.86674485     0.36100
N2333       N  0.66682478  0.44907746  0.86926728    -0.90400
H2334       H  0.60468073  0.95620434  0.84805129     0.17300
H2335       H  0.64233728  0.54514055  0.89434517     0.17200
N2336       N  0.61002276  0.05820203  0.84222252    -0.89500
H2337       H  0.67646811  0.44479758  0.84870766     0.34600
H2338       H  0.65262644  0.43152805  0.87437773     0.39700
H2339       H  0.62899353  0.06853123  0.83386614     0.39300
H2340       H  0.60188109  0.07111093  0.85954845     0.34200
C2341       C  0.61391194  0.97599372  0.63918111    -0.27500
C2342       C  0.60734039  0.50174864  0.65313008    -0.14100
C2343       C  0.61806907  0.52793890  0.64004956     0.35100
C2344       C  0.64028268  0.52640851  0.61856314    -0.27000
C2345       C  0.65199319  0.49917511  0.60954185    -0.16200
C2346       C  0.63544013  0.97485305  0.61687772     0.36100
N2347       N  0.64263606  0.94700701  0.60376208    -0.90400
H2348       H  0.60352842  0.95558592  0.64627563     0.17300
H2349       H  0.64879967  0.54684671  0.60939508     0.17200
N2350       N  0.60689367  0.55621720  0.64864009    -0.89500
H2351       H  0.62331788  0.93815347  0.59458072     0.34600
H2352       H  0.64973722  0.93278524  0.62050793     0.39700
H2353       H  0.59881987  0.56666925  0.62970400     0.39300
H2354       H  0.62456833  0.56880896  0.65668729     0.34200
C2355       C  0.85171821  0.97462292  0.61919249    -0.27500
C2356       C  0.83761724  0.00131928  0.61218382    -0.15600
C2357       C  0.85113054  0.52908962  0.62524807     0.35100
C2358       C  0.87381638  0.52811192  0.64623648    -0.27000
C2359       C  0.88719279  0.50131979  0.65410037    -0.16200
C2360       C  0.87431939  0.97352811  0.64039772     0.36100
N2361       N  0.88831638  0.94588450  0.64669894    -0.90400
H2362       H  0.84518743  0.95436823  0.60822074     0.17300
H2363       H  0.88030862  0.54846389  0.65704959     0.17200
N2364       N  0.83735210  0.55681048  0.61879647    -0.89500
H2365       H  0.89742752  0.93779438  0.62708047     0.34600
H2366       H  0.87203019  0.93100705  0.65374518     0.39700
H2367       H  0.85368738  0.57139590  0.61128420     0.39300
H2368       H  0.82865068  0.56527999  0.63844653     0.34200
C2369       C  0.97328447  0.64493058  0.87730864    -0.27500
C2370       C  0.49582807  0.65740738  0.88601464    -0.15600
C2371       C  0.52105618  0.64006156  0.88011437     0.35100
C2372       C  0.52004455  0.61842171  0.85793642    -0.27000
C2373       C  0.99861461  0.61532688  0.84022245    -0.16200
C2374       C  0.97255164  0.62272119  0.85574618     0.36100
N2375       N  0.94524421  0.60766023  0.84995019    -0.90400
H2376       H  0.95296266  0.65042123  0.88876977     0.17300
H2377       H  0.53978808  0.60562122  0.85347057     0.17200
N2378       N  0.54774131  0.64408342  0.89668274    -0.89500
H2379       H  0.92954051  0.62333858  0.84357433     0.34600
H2380       H  0.93800696  0.59791770  0.86963078     0.39700
H2381       H  0.56479849  0.64917000  0.88189813     0.39300
H2382       H  0.55283739  0.62399712  0.90686998     0.34200
C2383       C  0.52344579  0.88400002  0.85741525    -0.27500
C2384       C  0.99412636  0.88634007  0.84082957    -0.15600
C2385       C  0.96945343  0.86789838  0.84596761     0.35100
C2386       C  0.97029232  0.84726301  0.86893637    -0.27000
C2387       C  0.99560965  0.84406778  0.88656383    -0.16200
C2388       C  0.52468502  0.86274169  0.87997781     0.36100
N2389       N  0.55180334  0.85826600  0.89572654    -0.90400
H2390       H  0.54337203  0.89617180  0.85184770     0.17300
H2391       H  0.95128304  0.83299325  0.87228223     0.17200
N2392       N  0.94391495  0.86914387  0.82726065    -0.89500
H2393       H  0.55794074  0.87832517  0.90540976     0.34600
H2394       H  0.56818149  0.85248743  0.88047243     0.39700
H2395       H  0.92547239  0.87367742  0.84044710     0.39300
H2396       H  0.94088013  0.84831147  0.81774748     0.34200
C2397       C  0.52359847  0.85242898  0.62219790    -0.27500
C2398       C  0.99528761  0.84044617  0.61204956    -0.15600
C2399       C  0.96875533  0.85055424  0.62514797     0.35100
C2400       C  0.96977052  0.87206396  0.64746075    -0.27000
C2401       C  0.49862411  0.88531294  0.65655360    -0.16200
C2402       C  0.52500933  0.87339204  0.64493090     0.36100
N2403       N  0.55331817  0.88218864  0.65618900    -0.90400
H2404       H  0.54411196  0.84341701  0.61371712     0.17300
H2405       H  0.94913063  0.87946260  0.65712720     0.17200
N2406       N  0.94063770  0.83887696  0.61625839    -0.89500
H2407       H  0.56572903  0.89088203  0.63870369     0.34600
H2408       H  0.56415513  0.86334662  0.66395510     0.39700
H2409       H  0.92751604  0.85639927  0.60893299     0.39300
H2410       H  0.93043088  0.82957080  0.63481165     0.34200
C2411       C  0.97080133  0.62198698  0.64127530    -0.27500
C2412       C  0.49894552  0.61522646  0.65517876    -0.15600
C2413       C  0.52482337  0.62353480  0.63943978     0.35100
C2414       C  0.52327250  0.64558438  0.61785116    -0.27000
C2415       C  0.49653054  0.65994065  0.61145583    -0.16200
C2416       C  0.96863568  0.64347787  0.61888662     0.36100
N2417       N  0.94003750  0.65221101  0.60808417    -0.90400
H2418       H  0.95064914  0.61249882  0.65018660     0.17300
H2419       H  0.54331520  0.65162781  0.60611231     0.17200
N2420       N  0.55293183  0.60990302  0.64443445    -0.89500
H2421       H  0.92316329  0.64119127  0.61951348     0.34600
H2422       H  0.93852416  0.64531960  0.58610842     0.39700
H2423       H  0.55053220  0.58714787  0.64160207     0.39300
H2424       H  0.55977753  0.61441641  0.66603311     0.34200
loop_ 
_geom_bond_atom_site_label_1 
_geom_bond_atom_site_label_2 
_geom_bond_distance 
_geom_bond_site_symmetry_2 
_ccdc_geom_bond_type 
N1            N2   1.323       .  A
N1          N613   1.315       .  A
N1          Mn30   2.212       .  S
N2          C615   1.357       .  A
N3            N4   1.320       .  A
N3          N611   1.314   1_545  A
N3          Mn19   2.200       .  S
N4          C616   1.354       .  A
N5            N6   1.321       .  A
N5          N609   1.314       .  A
N5          Mn30   2.204       .  S
N6           C10   1.355       .  A
N7            N8   1.319       .  A
N7          N607   1.315   1_545  A
N7          Mn19   2.198       .  S
N8            C9   1.353       .  A
C9          N608   1.355   1_545  A
C9          C221   1.486       .  S
C10         N610   1.353       .  A
C10         C207   1.486       .  S
N11          N12   1.320       .  A
N11        N1229   1.314       .  A
N11         Mn41   2.190       .  S
N12          C20   1.353       .  A
N13          N14   1.319       .  A
N13        N1227   1.315   1_455  A
N13         Mn19   2.200       .  S
N14          C21   1.353   1_455  A
N15          N16   1.321       .  A
N15        N1225   1.314       .  A
N15         Mn41   2.204       .  S
N16        C1233   1.355       .  A
N17          N18   1.317       .  A
N17        N1223   1.314   1_455  A
N17         Mn19   2.198       .  S
N18        C1232   1.353   1_455  A
Mn19        Cl43   2.540   1_455  S
C20        N1230   1.354       .  A
C20         C252   1.481       .  S
C21        N1228   1.357       .  A
C21         C291   1.492       .  S
N22          N23   1.318       .  A
N22        N1240   1.315   1_455  A
N22         Mn30   2.197       .  S
N23        C1243   1.353   1_455  A
N24          N25   1.320       .  A
N24        N1238   1.315       .  A
N24         Mn42   2.200       .  S
N25        C1244   1.354       .  A
N26          N27   1.319       .  A
N26        N1236   1.316   1_455  A
N26         Mn30   2.200       .  S
N27          C32   1.353   1_455  A
N28          N29   1.319       .  A
N28        N1234   1.315       .  A
N28         Mn42   2.192       .  S
N29          C31   1.353       .  A
Mn30       Cl649   2.547   1_455  S
C31        N1235   1.353       .  A
C31         C263   1.478       .  S
C32        N1237   1.356       .  A
C32         C280   1.488       .  S
N33          N34   1.317       .  A
N33         N645   1.314   1_545  A
N33         Mn41   2.186       .  S
N34          C44   1.352       .  A
N35          N36   1.320       .  A
N35         N643   1.314       .  A
N35         Mn42   2.203       .  S
N36          C45   1.354       .  A
N37          N38   1.320       .  A
N37         N641   1.316   1_545  A
N37         Mn41   2.201       .  S
N38         C651   1.353   1_545  A
N39          N40   1.318       .  A
N39         N639   1.314       .  A
N39         Mn42   2.192       .  S
N40         C650   1.352       .  A
Mn41      Cl1255   2.546       .  S
Mn42      Cl1861   2.544       .  S
Cl43       Mn636   2.546   1_645  S
Cl43      Mn1253   2.548       .  S
Cl43      Mn1860   2.541   1_545  S
C44         N646   1.352   1_545  A
C44         C238   1.476       .  S
C45         N644   1.354       .  A
C45         C196   1.486       .  S
N46          N47   1.321       .  A
N46        N1264   1.315       .  A
N46         Mn75   2.205       .  S
N47        C1266   1.355       .  A
N48          N49   1.321       .  A
N48        N1262   1.315   1_455  A
N48         Mn64   2.209       .  S
N49        C1267   1.356   1_455  A
N50          N51   1.319       .  A
N50        N1260   1.315       .  A
N50         Mn75   2.198       .  S
N51          C55   1.353       .  A
N52          N53   1.319       .  A
N52        N1258   1.315   1_455  A
N52         Mn64   2.202       .  S
N53          C54   1.354   1_455  A
C54        N1259   1.355       .  A
C54         C294   1.487       .  S
C55        N1261   1.356       .  A
C55         C277   1.489       .  S
N56          N57   1.323       .  A
N56         N365   1.315       .  A
N56         Mn86   2.213       .  S
N57          C65   1.357       .  A
N58          N59   1.320       .  A
N58         N363   1.314   1_554  A
N58         Mn64   2.209       .  S
N59         C369   1.355   1_554  A
N60          N61   1.320       .  A
N60         N361   1.315       .  A
N60         Mn86   2.197       .  S
N61          C66   1.353       .  A
N62          N63   1.321       .  A
N62         N359   1.315   1_554  A
N62         Mn64   2.207       .  S
N63         C368   1.355   1_554  A
Mn64       Cl391   2.545   1_454  S
C65         N366   1.351       .  A
C65         C165   1.488       .  S
C66         N362   1.355       .  A
C66         C179   1.485       .  S
N67          N68   1.319       .  A
N67         N376   1.314   1_554  A
N67         Mn75   2.200       .  S
N68         C379   1.354   1_554  A
N69          N70   1.318       .  A
N69         N374   1.314       .  A
N69         Mn87   2.190       .  S
N70          C77   1.352       .  A
N71          N72   1.320       .  A
N71         N372   1.314   1_554  A
N71         Mn75   2.204       .  S
N72         C380   1.356   1_554  A
N73          N74   1.319       .  A
N73         N370   1.314       .  A
N73         Mn87   2.196       .  S
N74          C76   1.353       .  A
Mn75      Cl1603   2.545   1_554  S
C76         N371   1.354       .  A
C76         C137   1.484       .  S
C77         N375   1.355       .  A
C77         C154   1.484       .  S
N78          N79   1.319       .  A
N78        N1296   1.315   1_455  A
N78         Mn86   2.205       .  S
N79          C89   1.354   1_455  A
N80          N81   1.318       .  A
N80        N1294   1.315       .  A
N80         Mn87   2.187       .  S
N81          C90   1.351       .  A
N82          N83   1.318       .  A
N82        N1292   1.314   1_455  A
N82         Mn86   2.192       .  S
N83        C1302   1.352   1_455  A
N84          N85   1.320       .  A
N84        N1290   1.315       .  A
N84         Mn87   2.194       .  S
N85        C1301   1.354       .  A
Mn86        Cl88   2.546   1_455  S
Mn87      Cl1300   2.543       .  S
Cl88       Mn367   2.545   1_655  S
Cl88      Mn1590   2.545       .  S
Cl88      Mn1299   2.546       .  S
C89        N1297   1.354       .  A
C89         C249   1.485       .  S
C90        N1295   1.354       .  A
C90         C266   1.480       .  S
N91          N92   1.320       .  A
N91         N400   1.314       .  A
N91        Mn120   2.200       .  S
N92          C99   1.355       .  A
N93          N94   1.322       .  A
N93         N398   1.314   1_554  A
N93        Mn109   2.208       .  S
N94         C403   1.356   1_554  A
N95          N96   1.320       .  A
N95         N396   1.314       .  A
N95        Mn120   2.200       .  S
N96         C100   1.353       .  A
N97          N98   1.319       .  A
N97         N394   1.314   1_554  A
N97        Mn109   2.198       .  S
N98         C402   1.353   1_554  A
C99         N401   1.353       .  A
C99         C140   1.483       .  S
C100        N397   1.355       .  A
C100        C168   1.486       .  S
N101        N102   1.319       .  A
N101        N713   1.315   1_545  A
N101       Mn131   2.199       .  S
N102        C110   1.354   1_545  A
N103        N104   1.319       .  A
N103        N711   1.314       .  A
N103       Mn109   2.198       .  S
N104        C111   1.353       .  A
N105        N106   1.319       .  A
N105        N709   1.313   1_545  A
N105       Mn131   2.194       .  S
N106        C717   1.353       .  A
N107        N108   1.319       .  A
N107        N707   1.315       .  A
N107       Mn109   2.196       .  S
N108        C716   1.353       .  A
Mn109     Cl1042   2.545   1_554  S
C110        N714   1.355       .  A
C110        C224   1.486       .  S
C111        N712   1.354       .  A
C111        C235   1.483       .  S
N112        N113   1.319       .  A
N112        N724   1.315       .  A
N112       Mn120   2.197       .  S
N113        C727   1.353       .  A
N114        N115   1.321       .  A
N114        N722   1.315   1_545  A
N114       Mn132   2.202       .  S
N115        C728   1.353       .  A
N116        N117   1.319       .  A
N116        N720   1.314       .  A
N116       Mn120   2.197       .  S
N117        C122   1.354       .  A
N118        N119   1.321       .  A
N118        N718   1.315   1_545  A
N118       Mn132   2.204       .  S
N119        C121   1.355       .  A
Mn120      Cl739   2.542       .  S
C121        N719   1.354   1_545  A
C121        C210   1.488       .  S
C122        N721   1.354       .  A
C122        C193   1.488       .  S
N123        N124   1.317       .  A
N123        N432   1.314   1_554  A
N123       Mn131   2.189       .  S
N124        C437   1.351   1_554  A
N125        N126   1.321       .  A
N125        N430   1.315       .  A
N125       Mn132   2.205       .  S
N126        C135   1.355       .  A
N127        N128   1.319       .  A
N127        N428   1.315   1_554  A
N127       Mn131   2.201       .  S
N128        C438   1.353   1_554  A
N129        N130   1.320       .  A
N129        N426   1.314       .  A
N129       Mn132   2.198       .  S
N130        C134   1.354       .  A
Mn131      Cl436   2.540   1_554  S
Mn132      Cl133   2.547       .  S
Cl133     Mn1018   2.545   1_545  S
Cl133      Mn726   2.543   1_545  S
Cl133      Mn434   2.546       .  S
C134        N427   1.354       .  A
C134        C151   1.485       .  S
C135        N431   1.353       .  A
C135        C182   1.485       .  S
C136        C141   1.402       .  A
C136        C440   1.405   1_554  A
C136        H143   1.084       .  S
C137        C138   1.415       .  A
C137        C439   1.404       .  A
C138        C139   1.405       .  A
C138        N145   1.438       .  S
C139        C140   1.405       .  A
C139        H144   1.083       .  S
C140        C444   1.412       .  A
C141        C443   1.412   1_554  A
C141        N142   1.433       .  S
N142        H146   1.046       .  S
N142        H147   1.046       .  S
N145        H148   1.046       .  S
N145        H149   1.046       .  S
C150        C151   1.404       .  A
C150        C155   1.402       .  A
C150        H157   1.084       .  S
C151        C455   1.412       .  A
C152        C153   1.401       .  A
C152        C454   1.413   1_554  A
C152        N159   1.432       .  S
C153        C457   1.403   1_554  A
C153        H158   1.084       .  S
C154        C155   1.413       .  A
C154        C456   1.403       .  A
C155        N156   1.432       .  S
N156        H160   1.046       .  S
N156        H161   1.046       .  S
N159        H162   1.046       .  S
N159        H163   1.045       .  S
C164        C165   1.405       .  A
C164        C169   1.406       .  A
C164        H171   1.084       .  S
C165        C166   1.415       .  A
C166        C167   1.402       .  A
C166        N173   1.432       .  S
C167        C168   1.403       .  A
C167        H172   1.084       .  S
C168        C169   1.413       .  A
C169        N170   1.431       .  S
N170        H175   1.046       .  S
N170        H477   1.045       .  S
N173        H176   1.045       .  S
N173        H177   1.046       .  S
H174        N473   1.046       .  S
C178        C482   1.403   1_554  A
C178        C486   1.401       .  A
C178        H185   1.084       .  S
C179        C180   1.413       .  A
C179        C481   1.404       .  A
C180        C181   1.404       .  A
C180        N187   1.432       .  S
C181        C182   1.405       .  A
C181        H186   1.084       .  S
C182        C183   1.413       .  A
C183        C481   1.402       .  A
C183        N487   1.432       .  S
N184        C486   1.432       .  S
N184        H188   1.045       .  S
N184        H189   1.046       .  S
N187        H190   1.045       .  S
N187        H191   1.046       .  S
C192        C193   1.405       .  A
C192        C197   1.401       .  A
C192        H199   1.084       .  S
C193        C194   1.419       .  A
C194        C195   1.402       .  A
C194        N201   1.432       .  S
C195        C196   1.405       .  A
C195        H200   1.084       .  S
C196        C197   1.411       .  A
C197        N198   1.432       .  S
N198        H202   1.046       .  S
N198        H203   1.046       .  S
N201        H810   1.046       .  S
N201        H811   1.044       .  S
H204        N807   1.046       .  S
H205        N807   1.044       .  S
C206        C207   1.404       .  A
C206        C817   1.404       .  A
C206        H213   1.084       .  S
C207        C208   1.413       .  A
C208        C815   1.403       .  A
C208        N215   1.432       .  S
C209        C210   1.405       .  A
C209        C814   1.405       .  A
C209        H214   1.083       .  S
C210        C211   1.413   1_545  A
C211        C812   1.402       .  A
C211        N212   1.432       .  S
N212        H216   1.045       .  S
N212        H217   1.045       .  S
N215        H218   1.046       .  S
N215        H219   1.046       .  S
C220        C225   1.405       .  A
C220        C827   1.404       .  A
C220        H227   1.084       .  S
C221        C222   1.413       .  A
C221        C826   1.405   1_545  A
C222        C223   1.402       .  A
C222        N229   1.433       .  S
C223        C224   1.405   1_545  A
C223        H228   1.084       .  S
C224        C831   1.412       .  A
C225        C830   1.413       .  A
C225        N226   1.432       .  S
N226        H230   1.046       .  S
N226        H231   1.046       .  S
N229        H232   1.046       .  S
N229        H233   1.046       .  S
C234        C235   1.404       .  A
C234        C239   1.401       .  A
C234        H241   1.084       .  S
C235        C842   1.412       .  A
C236        C237   1.399       .  A
C236        C841   1.410       .  A
C236        N243   1.432       .  S
C237        C238   1.404       .  A
C237        H242   1.084       .  S
C238        C845   1.410   1_545  A
C239        C844   1.413       .  A
C239        N240   1.433       .  S
N240        H244   1.046       .  S
N240        H245   1.045       .  S
N243        H246   1.045       .  S
N243        H247   1.046       .  S
C248        C253   1.404       .  A
C248       C1461   1.406       .  A
C248        H255   1.084       .  S
C249        C250   1.411   1_655  A
C249       C1460   1.407       .  A
C250        C251   1.398       .  A
C250        N257   1.432       .  S
C251       C1464   1.402   1_455  A
C251        H256   1.084       .  S
C252        C253   1.412       .  A
C252       C1463   1.402       .  A
C253        N254   1.432       .  S
N254        H258   1.046       .  S
N254        H259   1.046       .  S
N257        H260   1.046       .  S
N257        H261   1.046       .  S
C262        C267   1.398       .  A
C262       C1475   1.403   1_455  A
C262        H269   1.084       .  S
C263        C264   1.411       .  A
C263       C1474   1.404       .  A
C264        C265   1.401       .  A
C264        N271   1.433       .  S
C265        C266   1.406       .  A
C265        H270   1.084       .  S
C266       C1479   1.410       .  A
C267       C1478   1.411   1_455  A
C267        N268   1.433       .  S
N268        H272   1.046       .  S
N268        H273   1.046       .  S
N271        H274   1.046       .  S
N271        H275   1.046       .  S
C276        C281   1.403       .  A
C276       C1489   1.404   1_455  A
C276        H283   1.084       .  S
C277        C278   1.417       .  A
C277       C1488   1.405       .  A
C278        C279   1.407       .  A
C278        N285   1.438       .  S
C279       C1492   1.405       .  A
C279        H284   1.083       .  S
C280        C281   1.414   1_655  A
C280       C1491   1.405       .  A
C281        N282   1.432       .  S
N282        H286   1.046       .  S
N282        H287   1.046       .  S
N285        H288   1.045       .  S
N285        H289   1.046       .  S
C290        C295   1.404       .  A
C290       C1503   1.407       .  A
C290        H297   1.083       .  S
C291        C292   1.421   1_655  A
C291       C1502   1.407       .  A
C292        C293   1.399       .  A
C292        N299   1.432       .  S
C293        C294   1.404   1_455  A
C293        H298   1.084       .  S
C294       C1507   1.411       .  A
C295       C1506   1.411       .  A
C295        N296   1.432       .  S
N296        H300   1.045       .  S
N296        H301   1.046       .  S
N299        H302   1.044       .  S
N299        H303   1.046       .  S
N304        N305   1.318       .  A
N304        N916   1.314       .  A
N304       Mn333   2.189       .  S
N305        C918   1.352       .  A
N306        N914   1.314   1_545  A
N306        N307   1.320       .  A
N306       Mn322   2.196       .  S
N307        C919   1.353   1_545  A
N308        N912   1.315       .  A
N308        N309   1.318       .  A
N308       Mn333   2.191       .  S
N309        C313   1.353       .  A
N310        N910   1.315   1_545  A
N310        N311   1.318       .  A
N310       Mn322   2.193       .  S
N311        C312   1.352       .  A
C312        N911   1.356   1_545  A
C312        C524   1.483       .  S
C313        N913   1.354       .  A
C313        C510   1.480       .  S
N314       N1532   1.314       .  A
N314        N315   1.319       .  A
N314       Mn344   2.190       .  S
N315        C323   1.353       .  A
N316        N317   1.320       .  A
N316       N1530   1.315   1_455  A
N316       Mn322   2.199       .  S
N317        C324   1.353   1_455  A
N318       N1528   1.314       .  A
N318        N319   1.321       .  A
N318       Mn344   2.204       .  S
N319       C1536   1.356       .  A
N320       N1526   1.314   1_455  A
N320        N321   1.318       .  A
N320       Mn322   2.194       .  S
N321       C1535   1.354   1_455  A
Mn322      Cl346   2.542   1_445  S
C323       N1533   1.354       .  A
C323        C555   1.481       .  S
C324       N1531   1.356       .  A
C324        C594   1.491       .  S
N325        N326   1.319       .  A
N325       N1543   1.313   1_455  A
N325       Mn333   2.190       .  S
N326       C1546   1.354   1_455  A
N327       N1541   1.314       .  A
N327        N328   1.318       .  A
N327       Mn345   2.197       .  S
N328       C1547   1.354       .  A
N329       N1539   1.314   1_455  A
N329        N330   1.319       .  A
N329       Mn333   2.198       .  S
N330        C335   1.353   1_455  A
N331       N1537   1.314       .  A
N331        N332   1.317       .  A
N331       Mn345   2.195       .  S
N332        C334   1.352       .  A
Mn333      Cl952   2.543   1_455  S
C334       N1538   1.354       .  A
C334        C566   1.480       .  S
C335       N1540   1.356       .  A
C335        C583   1.489       .  S
N336        N337   1.317       .  A
N336        N948   1.314   1_545  A
N336       Mn344   2.190       .  S
N337        C347   1.353   1_545  A
N338        N339   1.321       .  A
N338        N946   1.314       .  A
N338       Mn345   2.202       .  S
N339        C348   1.355       .  A
N340        N944   1.314   1_545  A
N340        N341   1.319       .  A
N340       Mn344   2.201       .  S
N341        C954   1.355   1_545  A
N342        N942   1.315       .  A
N342        N343   1.321       .  A
N342       Mn345   2.198       .  S
N343        C953   1.354       .  A
Mn344     Cl1558   2.545       .  S
Mn345     Cl2164   2.543       .  S
Cl346      Mn939   2.546   1_655  S
Cl346     Mn1556   2.547   1_565  S
Cl346     Mn2163   2.544       .  S
C347        N949   1.353       .  A
C347        C541   1.479       .  S
C348        N947   1.353       .  A
C348        C499   1.484       .  S
N349        N350   1.319       .  A
N349       N1567   1.314       .  A
N349       Mn378   2.197       .  S
N350       C1569   1.354       .  A
N351       N1565   1.315   1_455  A
N351        N352   1.321       .  A
N351       Mn367   2.209       .  S
N352       C1570   1.356   1_455  A
N353       N1563   1.314       .  A
N353        N354   1.318       .  A
N353       Mn378   2.198       .  S
N354        C358   1.353       .  A
N355       N1561   1.315   1_455  A
N355        N356   1.321       .  A
N355       Mn367   2.198       .  S
N356        C357   1.354   1_455  A
C357       N1562   1.354       .  A
C357        C597   1.488       .  S
C358       N1564   1.355       .  A
C358        C580   1.485       .  S
N359        N360   1.320       .  A
N359       Mn389   2.203       .  S
N360        C368   1.354       .  A
N361        N362   1.320       .  A
N361       Mn367   2.205       .  S
N363        N364   1.320       .  A
N363       Mn389   2.193       .  S
N364        C369   1.353       .  A
N365        N366   1.317       .  A
N365       Mn367   2.194       .  S
C368        C468   1.487       .  S
C369        C482   1.485       .  S
N370        N371   1.319       .  A
N370       Mn378   2.198       .  S
N372        N373   1.318       .  A
N372       Mn390   2.190       .  S
N373        C380   1.351       .  A
N374        N375   1.320       .  A
N374       Mn378   2.202       .  S
N376        N377   1.320       .  A
N376       Mn390   2.199       .  S
N377        C379   1.354       .  A
Mn378     Cl1300   2.545       .  S
C379        C440   1.484       .  S
C380        C457   1.482       .  S
N381        N382   1.317       .  A
N381       N1599   1.314   1_455  A
N381       Mn389   2.197       .  S
N382        C392   1.352   1_455  A
N383        N384   1.317       .  A
N383       N1597   1.314       .  A
N383       Mn390   2.191       .  S
N384        C393   1.353       .  A
N385       N1595   1.314   1_455  A
N385        N386   1.318       .  A
N385       Mn389   2.186       .  S
N386       C1605   1.351   1_455  A
N387       N1593   1.314       .  A
N387        N388   1.321       .  A
N387       Mn390   2.198       .  S
N388       C1604   1.355       .  A
Mn389      Cl391   2.543   1_455  S
Mn390     Cl1603   2.546       .  S
Cl391     Mn1287   2.545   1_556  S
Cl391     Mn1602   2.546       .  S
C392       N1600   1.354       .  A
C392        C552   1.481       .  S
C393       N1598   1.353       .  A
C393        C569   1.478       .  S
N394        N395   1.320       .  A
N394       Mn423   2.198       .  S
N395        C402   1.355       .  A
N396        N397   1.321       .  A
N396       Mn412   2.204       .  S
N398        N399   1.320       .  A
N398       Mn423   2.200       .  S
N399        C403   1.353       .  A
N400        N401   1.319       .  A
N400       Mn412   2.191       .  S
C402        C443   1.484       .  S
C403        C471   1.488       .  S
N404       N1016   1.315   1_545  A
N404        N405   1.321       .  A
N404       Mn434   2.206       .  S
N405        C413   1.355       .  A
N406        N407   1.321       .  A
N406       N1014   1.315       .  A
N406       Mn412   2.200       .  S
N407        C414   1.354       .  A
N408       N1012   1.314   1_545  A
N408        N409   1.318       .  A
N408       Mn434   2.191       .  S
N409       C1020   1.353   1_545  A
N410       N1010   1.314       .  A
N410        N411   1.318       .  A
N410       Mn412   2.188       .  S
N411       C1019   1.352       .  A
Mn412      Cl739   2.545       .  S
C413       N1017   1.353   1_545  A
C413        C527   1.484       .  S
C414       N1015   1.353       .  A
C414        C538   1.482       .  S
N415        N416   1.318       .  A
N415       N1027   1.315       .  A
N415       Mn423   2.193       .  S
N416       C1030   1.352       .  A
N417       N1025   1.313   1_545  A
N417        N418   1.319       .  A
N417       Mn435   2.202       .  S
N418       C1031   1.354       .  A
N419       N1023   1.314       .  A
N419        N420   1.319       .  A
N419       Mn423   2.195       .  S
N420        C425   1.354       .  A
N421       N1021   1.315   1_545  A
N421        N422   1.320       .  A
N421       Mn435   2.201       .  S
N422        C424   1.354   1_545  A
Mn423     Cl1042   2.542       .  S
C424       N1022   1.353       .  A
C424        C513   1.483       .  S
C425       N1024   1.354       .  A
C425        C496   1.488       .  S
N426        N427   1.320       .  A
N426       Mn434   2.200       .  S
N428        N429   1.321       .  A
N428       Mn435   2.204       .  S
N429        C438   1.355       .  A
N430        N431   1.319       .  A
N430       Mn434   2.198       .  S
N432        N433   1.320       .  A
N432       Mn435   2.201       .  S
N433        C437   1.356       .  A
Mn435      Cl436   2.545       .  S
Cl436      Mn715   2.545   1_546  S
Cl436     Mn1029   2.543   1_545  S
C437        C454   1.482       .  S
C438        C485   1.486       .  S
C439        C444   1.401       .  A
C439        H446   1.084       .  S
C440        C441   1.412       .  A
C441        C442   1.403       .  A
C441        N448   1.432       .  S
C442        C443   1.405       .  A
C442        H447   1.084       .  S
C444        N445   1.433       .  S
N445        H449   1.046       .  S
N445        H450   1.046       .  S
N448        H451   1.046       .  S
N448        H452   1.046       .  S
C453        C454   1.403       .  A
C453        C458   1.402       .  A
C453        H460   1.084       .  S
C455        C456   1.402       .  A
C455        N462   1.431       .  S
C456        H461   1.084       .  S
C457        C458   1.413       .  A
C458        N459   1.432       .  S
N459        H463   1.046       .  S
N459        H464   1.046       .  S
N462        H465   1.045       .  S
N462        H466   1.045       .  S
C467        C468   1.404       .  A
C467        C472   1.404       .  A
C467        H474   1.084       .  S
C468        C469   1.412   1_556  A
C469        C470   1.406       .  A
C469        N476   1.432       .  S
C470        C471   1.406   1_554  A
C470        H475   1.084       .  S
C471        C472   1.413       .  A
C472        N473   1.432       .  S
N473        H478   1.045       .  S
N476        H479   1.045       .  S
N476        H480   1.046       .  S
C481        H488   1.084       .  S
C482        C483   1.413       .  A
C483        C484   1.406       .  A
C483        N490   1.432       .  S
C484        C485   1.406       .  A
C484        H489   1.084       .  S
C485        C486   1.412   1_556  A
N487        H491   1.045       .  S
N487        H492   1.046       .  S
N490        H493   1.046       .  S
N490        H494   1.046       .  S
C495        C496   1.407       .  A
C495        C500   1.402       .  A
C495        H502   1.083       .  S
C496        C497   1.418       .  A
C497        C498   1.398       .  A
C497        N504   1.432       .  S
C498        C499   1.405       .  A
C498        H503   1.084       .  S
C499        C500   1.410       .  A
C500        N501   1.432       .  S
N501        H505   1.046       .  S
N501        H506   1.045       .  S
N504       H1113   1.045       .  S
N504       H1114   1.045       .  S
H507       N1110   1.046       .  S
H508       N1110   1.044       .  S
C509        C510   1.404       .  A
C509       C1120   1.400       .  A
C509        H516   1.084       .  S
C510        C511   1.411       .  A
C511       C1118   1.401       .  A
C511        N518   1.432       .  S
C512       C1117   1.403       .  A
C512        C513   1.405   1_545  A
C512        H517   1.084       .  S
C513        C514   1.412       .  A
C514       C1115   1.402       .  A
C514        N515   1.432       .  S
N515        H519   1.046       .  S
N515        H520   1.046       .  S
N518        H521   1.045       .  S
N518        H522   1.046       .  S
C523       C1130   1.404       .  A
C523        C528   1.400       .  A
C523        H530   1.084       .  S
C524       C1129   1.403   1_545  A
C524        C525   1.413       .  A
C525        C526   1.403       .  A
C525        N532   1.433       .  S
C526        C527   1.404       .  A
C526        H531   1.084       .  S
C527       C1134   1.413   1_545  A
C528       C1133   1.412       .  A
C528        N529   1.433       .  S
N529        H533   1.046       .  S
N529        H534   1.046       .  S
N532        H535   1.046       .  S
N532        H536   1.046       .  S
C537        C538   1.406       .  A
C537        C542   1.405       .  A
C537        H544   1.084       .  S
C538       C1145   1.411       .  A
C539       C1144   1.411   1_545  A
C539        C540   1.399       .  A
C539        N546   1.431       .  S
C540        C541   1.403   1_545  A
C540        H545   1.084       .  S
C541       C1148   1.411       .  A
C542       C1147   1.410       .  A
C542        N543   1.433       .  S
N543        H547   1.046       .  S
N543        H548   1.045       .  S
N546        H549   1.045       .  S
N546        H550   1.046       .  S
C551       C1764   1.405       .  A
C551        C556   1.404       .  A
C551        H558   1.084       .  S
C552       C1763   1.405       .  A
C552        C553   1.412   1_655  A
C553        C554   1.398       .  A
C553        N560   1.432       .  S
C554       C1767   1.402   1_455  A
C554        H559   1.084       .  S
C555       C1766   1.402       .  A
C555        C556   1.413       .  A
C556        N557   1.432       .  S
N557        H561   1.046       .  S
N557        H562   1.046       .  S
N560        H563   1.046       .  S
N560        H564   1.045       .  S
C565       C1778   1.404   1_455  A
C565        C570   1.401       .  A
C565        H572   1.084       .  S
C566       C1777   1.405       .  A
C566        C567   1.412       .  A
C567        C568   1.398       .  A
C567        N574   1.433       .  S
C568        C569   1.403       .  A
C568        H573   1.084       .  S
C569       C1782   1.411       .  A
C570       C1781   1.412   1_455  A
C570        N571   1.433       .  S
N571        H575   1.046       .  S
N571        H576   1.046       .  S
N574        H577   1.046       .  S
N574        H578   1.046       .  S
C579       C1792   1.404   1_455  A
C579        C584   1.403       .  A
C579        H586   1.084       .  S
C580       C1791   1.406       .  A
C580        C581   1.412       .  A
C581        C582   1.400       .  A
C581        N588   1.433       .  S
C582       C1795   1.404       .  A
C582        H587   1.084       .  S
C583       C1794   1.405       .  A
C583        C584   1.414   1_655  A
C584        N585   1.432       .  S
N585        H589   1.046       .  S
N585        H590   1.046       .  S
N588        H591   1.046       .  S
N588        H592   1.046       .  S
C593       C1806   1.405       .  A
C593        C598   1.402       .  A
C593        H600   1.084       .  S
C594       C1805   1.405       .  A
C594        C595   1.421   1_655  A
C595        C596   1.402       .  A
C595        N602   1.433       .  S
C596        C597   1.405   1_455  A
C596        H601   1.084       .  S
C597       C1810   1.411       .  A
C598       C1809   1.411       .  A
C598        N599   1.432       .  S
N599        H603   1.046       .  S
N599        H604   1.046       .  S
N602        H605   1.045       .  S
N602        H606   1.045       .  S
N607        N608   1.321       .  A
N607       Mn636   2.202       .  S
N609        N610   1.319       .  A
N609       Mn625   2.196       .  S
N611        N612   1.319       .  A
N611       Mn636   2.199       .  S
N612        C616   1.354   1_565  A
N613        N614   1.317       .  A
N613       Mn625   2.192       .  S
N614        C615   1.351       .  A
C615        C827   1.487       .  S
C616        C813   1.486       .  S
N617       N1835   1.315       .  A
N617        N618   1.319       .  A
N617       Mn647   2.197       .  S
N618        C626   1.353       .  A
N619        N620   1.320       .  A
N619       N1833   1.314   1_455  A
N619       Mn625   2.195       .  S
N620        C627   1.353   1_455  A
N621       N1831   1.315       .  A
N621        N622   1.319       .  A
N621       Mn647   2.195       .  S
N622       C1839   1.354       .  A
N623       N1829   1.314   1_455  A
N623        N624   1.319       .  A
N623       Mn625   2.194       .  S
N624       C1838   1.353   1_455  A
Mn625      Cl649   2.543   1_455  S
C626       N1836   1.354       .  A
C626        C858   1.483       .  S
C627       N1834   1.355       .  A
C627        C897   1.487       .  S
N628        N629   1.319       .  A
N628       N1846   1.314   1_455  A
N628       Mn636   2.193       .  S
N629       C1849   1.353   1_455  A
N630       N1844   1.315       .  A
N630        N631   1.321       .  A
N630       Mn648   2.207       .  S
N631       C1850   1.355       .  A
N632       N1842   1.315   1_455  A
N632        N633   1.319       .  A
N632       Mn636   2.201       .  S
N633        C638   1.354   1_455  A
N634       N1840   1.314       .  A
N634        N635   1.321       .  A
N634       Mn648   2.204       .  S
N635        C637   1.355       .  A
C637       N1841   1.354       .  A
C637        C869   1.487       .  S
C638       N1843   1.353       .  A
C638        C886   1.481       .  S
N639        N640   1.320       .  A
N639       Mn647   2.201       .  S
N640        C650   1.355       .  A
N641        N642   1.320       .  A
N641       Mn648   2.202       .  S
N642        C651   1.353       .  A
N643        N644   1.321       .  A
N643       Mn647   2.200       .  S
N645        N646   1.318       .  A
N645       Mn648   2.190       .  S
Mn647     Cl1861   2.547       .  S
Mn648     Cl1255   2.545   1_565  S
Cl649     Mn1859   2.547       .  S
Cl649     Mn1254   2.546       .  S
C650        C844   1.484       .  S
C651        C802   1.478       .  S
N652        N653   1.322       .  A
N652       N1870   1.315       .  A
N652       Mn681   2.209       .  S
N653       C1872   1.356       .  A
N654       N1868   1.315   1_455  A
N654        N655   1.319       .  A
N654       Mn670   2.198       .  S
N655       C1873   1.354   1_455  A
N656       N1866   1.314       .  A
N656        N657   1.321       .  A
N656       Mn681   2.205       .  S
N657        C661   1.355       .  A
N658       N1864   1.315   1_455  A
N658        N659   1.318       .  A
N658       Mn670   2.187       .  S
N659        C660   1.352   1_455  A
C660       N1865   1.355       .  A
C660        C900   1.484       .  S
C661       N1867   1.356       .  A
C661        C883   1.491       .  S
N662        N971   1.314       .  A
N662        N663   1.321       .  A
N662       Mn692   2.203       .  S
N663        C671   1.356       .  A
N664        N665   1.321       .  A
N664        N969   1.314   1_554  A
N664       Mn670   2.205       .  S
N665        C975   1.356   1_554  A
N666        N967   1.314       .  A
N666        N667   1.320       .  A
N666       Mn692   2.199       .  S
N667        C672   1.354       .  A
N668        N965   1.314   1_554  A
N668        N669   1.319       .  A
N668       Mn670   2.188       .  S
N669        C974   1.352       .  A
Mn670      Cl997   2.545   1_454  S
C671        N972   1.352       .  A
C671        C771   1.483       .  S
C672        N968   1.356       .  A
C672        C785   1.489       .  S
N673        N674   1.320       .  A
N673        N982   1.314   1_554  A
N673       Mn681   2.203       .  S
N674        C985   1.355   1_554  A
N675        N980   1.314       .  A
N675        N676   1.318       .  A
N675       Mn693   2.193       .  S
N676        C683   1.353       .  A
N677        N978   1.314   1_554  A
N677        N678   1.319       .  A
N677       Mn681   2.204       .  S
N678        C986   1.355   1_554  A
N679        N976   1.314       .  A
N679        N680   1.320       .  A
N679       Mn693   2.201       .  S
N680        C682   1.354       .  A
Mn681     Cl2209   2.546   1_554  S
C682        N977   1.353       .  A
C682        C743   1.484       .  S
C683        N981   1.355       .  A
C683        C760   1.483       .  S
N684        N685   1.318       .  A
N684       N1902   1.315   1_455  A
N684       Mn692   2.195       .  S
N685        C695   1.352   1_455  A
N686        N687   1.320       .  A
N686       N1900   1.315       .  A
N686       Mn693   2.198       .  S
N687        C696   1.354       .  A
N688       N1898   1.315   1_455  A
N688        N689   1.321       .  A
N688       Mn692   2.200       .  S
N689       C1908   1.355   1_455  A
N690       N1896   1.314       .  A
N690        N691   1.319       .  A
N690       Mn693   2.197       .  S
N691       C1907   1.353       .  A
Mn692      Cl694   2.547   1_455  S
Mn693     Cl1906   2.542       .  S
Cl694      Mn973   2.544   1_655  S
Cl694     Mn2196   2.544       .  S
Cl694     Mn1905   2.547       .  S
C695       N1903   1.356       .  A
C695        C855   1.484       .  S
C696       N1901   1.354       .  A
C696        C872   1.485       .  S
N697        N698   1.319       .  A
N697       N1006   1.314       .  A
N697       Mn726   2.200       .  S
N698        C705   1.354       .  A
N699       N1004   1.314   1_554  A
N699        N700   1.319       .  A
N699       Mn715   2.190       .  S
N700       C1009   1.354   1_554  A
N701       N1002   1.315       .  A
N701        N702   1.319       .  A
N701       Mn726   2.200       .  S
N702        C706   1.353       .  A
N703       N1000   1.314   1_554  A
N703        N704   1.320       .  A
N703       Mn715   2.203       .  S
N704       C1008   1.354   1_554  A
C705       N1007   1.353       .  A
C705        C746   1.483       .  S
C706       N1003   1.355       .  A
C706        C774   1.484       .  S
N707        N708   1.320       .  A
N707       Mn737   2.205       .  S
N708        C716   1.355       .  A
N709        N710   1.316       .  A
N709       Mn715   2.182       .  S
N710        C717   1.351   1_565  A
N711        N712   1.320       .  A
N711       Mn737   2.196       .  S
N713        N714   1.321       .  A
N713       Mn715   2.206       .  S
C716        C830   1.485       .  S
C717        C841   1.477       .  S
N718        N719   1.319       .  A
N718       Mn726   2.201       .  S
N720        N721   1.321       .  A
N720       Mn738   2.203       .  S
N722        N723   1.319       .  A
N722       Mn726   2.201       .  S
N723        C728   1.354   1_565  A
N724        N725   1.320       .  A
N724       Mn738   2.204       .  S
N725        C727   1.355       .  A
C727        C816   1.486       .  S
C728        C799   1.481       .  S
N729        N730   1.318       .  A
N729       N1038   1.315   1_554  A
N729       Mn737   2.202       .  S
N730       C1043   1.353   1_554  A
N731        N732   1.320       .  A
N731       N1036   1.315       .  A
N731       Mn738   2.204       .  S
N732        C741   1.355       .  A
N733       N1034   1.314   1_554  A
N733        N734   1.318       .  A
N733       Mn737   2.192       .  S
N734       C1044   1.352   1_554  A
N735       N1032   1.314       .  A
N735        N736   1.319       .  A
N735       Mn738   2.201       .  S
N736        C740   1.354       .  A
Mn737     Cl1042   2.542   1_554  S
Mn738      Cl739   2.544       .  S
Cl739     Mn1040   2.544       .  S
C740       N1033   1.353       .  A
C740        C757   1.483       .  S
C741       N1037   1.355       .  A
C741        C788   1.488       .  S
C742       C1046   1.404   1_554  A
C742        C747   1.403       .  A
C742        H749   1.084       .  S
C743       C1045   1.405       .  A
C743        C744   1.412       .  A
C744        C745   1.402       .  A
C744        N751   1.432       .  S
C745        C746   1.404       .  A
C745        H750   1.084       .  S
C746       C1050   1.412       .  A
C747       C1049   1.412   1_554  A
C747        N748   1.432       .  S
N748        H752   1.046       .  S
N748        H753   1.046       .  S
N751        H754   1.046       .  S
N751        H755   1.046       .  S
C756        C757   1.404       .  A
C756        C761   1.401       .  A
C756        H763   1.084       .  S
C757       C1061   1.413       .  A
C758       C1060   1.413   1_554  A
C758        C759   1.400       .  A
C758        N765   1.432       .  S
C759       C1063   1.403   1_554  A
C759        H764   1.084       .  S
C760       C1062   1.404       .  A
C760        C761   1.412       .  A
C761        N762   1.433       .  S
N762        H766   1.046       .  S
N762        H767   1.046       .  S
N765        H768   1.045       .  S
N765        H769   1.046       .  S
C770        C771   1.403       .  A
C770        C775   1.402       .  A
C770        H777   1.084       .  S
C771        C772   1.413       .  A
C772        C773   1.402       .  A
C772        N779   1.432       .  S
C773        C774   1.404       .  A
C773        H778   1.084       .  S
C774        C775   1.412       .  A
C775        N776   1.431       .  S
N776       H1083   1.045       .  S
N776        H781   1.045       .  S
N779        H782   1.046       .  S
N779        H783   1.046       .  S
H780       N1079   1.046       .  S
C784       C1088   1.403   1_554  A
C784       C1092   1.402       .  A
C784        H791   1.084       .  S
C785       C1087   1.405       .  A
C785        C786   1.413       .  A
C786        C787   1.404       .  A
C786        N793   1.432       .  S
C787        C788   1.405       .  A
C787        H792   1.084       .  S
C788        C789   1.413       .  A
C789       C1087   1.405       .  A
C789       N1093   1.432       .  S
N790       C1092   1.432       .  S
N790        H794   1.046       .  S
N790        H795   1.046       .  S
N793        H796   1.046       .  S
N793        H797   1.046       .  S
C798        C799   1.404   1_565  A
C798        C803   1.400       .  A
C798        H805   1.084       .  S
C799        C800   1.417       .  A
C800        C801   1.401       .  A
C800        N807   1.433       .  S
C801        C802   1.404   1_545  A
C801        H806   1.084       .  S
C802        C803   1.408       .  A
C803        N804   1.432       .  S
N804        H808   1.046       .  S
N804        H809   1.045       .  S
C812        C813   1.404   1_565  A
C812        H819   1.084       .  S
C813        C814   1.413       .  A
C814        N821   1.432       .  S
C815        C816   1.404       .  A
C815        H820   1.084       .  S
C816        C817   1.413       .  A
C817        N818   1.432       .  S
N818        H822   1.046       .  S
N818        H823   1.045       .  S
N821        H824   1.046       .  S
N821        H825   1.046       .  S
C826        C831   1.404       .  A
C826        H833   1.084       .  S
C827        C828   1.414       .  A
C828        C829   1.402       .  A
C828        N835   1.432       .  S
C829        C830   1.403       .  A
C829        H834   1.084       .  S
C831        N832   1.432       .  S
N832        H836   1.046       .  S
N832        H837   1.046       .  S
N835        H838   1.045       .  S
N835        H839   1.046       .  S
C840        C841   1.404   1_565  A
C840        C845   1.398       .  A
C840        H847   1.084       .  S
C842        C843   1.403       .  A
C842        N849   1.432       .  S
C843        C844   1.405       .  A
C843        H848   1.084       .  S
C845        N846   1.433       .  S
N846        H850   1.046       .  S
N846        H851   1.046       .  S
N849        H852   1.045       .  S
N849        H853   1.046       .  S
C854       C2067   1.405       .  A
C854        C859   1.402       .  A
C854        H861   1.084       .  S
C855       C2066   1.405       .  A
C855        C856   1.412   1_655  A
C856        C857   1.399       .  A
C856        N863   1.433       .  S
C857       C2070   1.402   1_455  A
C857        H862   1.084       .  S
C858       C2069   1.404       .  A
C858        C859   1.412       .  A
C859        N860   1.432       .  S
N860        H864   1.046       .  S
N860        H865   1.046       .  S
N863        H866   1.046       .  S
N863        H867   1.046       .  S
C868       C2081   1.406   1_455  A
C868        C873   1.401       .  A
C868        H875   1.084       .  S
C869       C2080   1.406       .  A
C869        C870   1.412       .  A
C870        C871   1.403       .  A
C870        N877   1.432       .  S
C871        C872   1.405       .  A
C871        H876   1.084       .  S
C872       C2085   1.412       .  A
C873       C2084   1.408   1_455  A
C873        N874   1.432       .  S
N874        H878   1.046       .  S
N874        H879   1.045       .  S
N877        H880   1.045       .  S
N877        H881   1.046       .  S
C882       C2095   1.404   1_455  A
C882        C887   1.401       .  A
C882        H889   1.084       .  S
C883       C2094   1.405       .  A
C883        C884   1.413       .  A
C884        C885   1.406       .  A
C884        N891   1.433       .  S
C885       C2098   1.406       .  A
C885        H890   1.084       .  S
C886       C2097   1.405       .  A
C886        C887   1.411   1_655  A
C887        N888   1.432       .  S
N888        H892   1.046       .  S
N888        H893   1.046       .  S
N891        H894   1.046       .  S
N891        H895   1.046       .  S
C896       C2109   1.408       .  A
C896        C901   1.404       .  A
C896        H903   1.083       .  S
C897       C2108   1.406       .  A
C897        C898   1.419   1_655  A
C898        C899   1.399       .  A
C898        N905   1.432       .  S
C899        C900   1.405   1_455  A
C899        H904   1.084       .  S
C900       C2113   1.410       .  A
C901       C2112   1.410       .  A
C901        N902   1.432       .  S
N902        H906   1.045       .  S
N902        H907   1.046       .  S
N905        H908   1.045       .  S
N905        H909   1.045       .  S
N910        N911   1.321       .  A
N910       Mn939   2.205       .  S
N912        N913   1.319       .  A
N912       Mn928   2.199       .  S
N914        N915   1.320       .  A
N914       Mn939   2.199       .  S
N915        C919   1.354       .  A
N916        N917   1.318       .  A
N916       Mn928   2.196       .  S
N917        C918   1.353       .  A
C918       C1130   1.477       .  S
C919       C1116   1.483       .  S
N920       N2138   1.315       .  A
N920        N921   1.320       .  A
N920       Mn950   2.200       .  S
N921        C929   1.354       .  A
N922        N923   1.320       .  A
N922       N2136   1.314   1_455  A
N922       Mn928   2.205       .  S
N923        C930   1.355   1_455  A
N924       N2134   1.313       .  A
N924        N925   1.319       .  A
N924       Mn950   2.195       .  S
N925       C2142   1.354       .  A
N926       N2132   1.314   1_455  A
N926        N927   1.320       .  A
N926       Mn928   2.199       .  S
N927       C2141   1.354   1_455  A
Mn928      Cl952   2.545   1_455  S
C929       N2139   1.355       .  A
C929       C1161   1.485       .  S
C930       N2137   1.355       .  A
C930       C1200   1.492       .  S
N931        N932   1.319       .  A
N931       N2149   1.315   1_455  A
N931       Mn939   2.195       .  S
N932       C2152   1.353   1_455  A
N933       N2147   1.314       .  A
N933        N934   1.318       .  A
N933       Mn951   2.190       .  S
N934       C2153   1.352       .  A
N935       N2145   1.316   1_455  A
N935        N936   1.320       .  A
N935       Mn939   2.204       .  S
N936        C941   1.354   1_455  A
N937       N2143   1.314       .  A
N937        N938   1.317       .  A
N937       Mn951   2.193       .  S
N938        C940   1.352       .  A
C940       N2144   1.354       .  A
C940       C1172   1.480       .  S
C941       N2146   1.356       .  A
C941       C1189   1.489       .  S
N942        N943   1.317       .  A
N942       Mn950   2.195       .  S
N943        C953   1.352       .  A
N944        N945   1.320       .  A
N944       Mn951   2.194       .  S
N945        C954   1.353       .  A
N946        N947   1.318       .  A
N946       Mn950   2.193       .  S
N948        N949   1.319       .  A
N948       Mn951   2.195       .  S
Mn950     Cl2164   2.540       .  S
Mn951     Cl1558   2.541   1_565  S
Cl952     Mn2162   2.541       .  S
Cl952     Mn1557   2.544       .  S
C953       C1147   1.480       .  S
C954       C1105   1.485       .  S
N955        N956   1.318       .  A
N955       N2173   1.314       .  A
N955       Mn984   2.193       .  S
N956       C2175   1.353       .  A
N957       N2171   1.315   1_455  A
N957        N958   1.322       .  A
N957       Mn973   2.212       .  S
N958       C2176   1.356   1_455  A
N959       N2169   1.314       .  A
N959        N960   1.319       .  A
N959       Mn984   2.196       .  S
N960        C964   1.353       .  A
N961       N2167   1.314   1_455  A
N961        N962   1.318       .  A
N961       Mn973   2.189       .  S
N962        C963   1.352   1_455  A
C963       N2168   1.356       .  A
C963       C1203   1.488       .  S
C964       N2170   1.353       .  A
C964       C1186   1.481       .  S
N965        N966   1.318       .  A
N965       Mn995   2.195       .  S
N966        C974   1.354   1_556  A
N967        N968   1.322       .  A
N967       Mn973   2.210       .  S
N969        N970   1.317       .  A
N969       Mn995   2.185       .  S
N970        C975   1.351       .  A
N971        N972   1.318       .  A
N971       Mn973   2.192       .  S
C974       C1074   1.480       .  S
C975       C1088   1.482       .  S
N976        N977   1.319       .  A
N976       Mn984   2.195       .  S
N978        N979   1.319       .  A
N978       Mn996   2.189       .  S
N979        C986   1.352       .  A
N980        N981   1.320       .  A
N980       Mn984   2.198       .  S
N982        N983   1.319       .  A
N982       Mn996   2.195       .  S
N983        C985   1.352       .  A
Mn984     Cl1906   2.544       .  S
C985       C1046   1.484       .  S
C986       C1063   1.483       .  S
N987        N988   1.319       .  A
N987       N2205   1.315   1_455  A
N987       Mn995   2.193       .  S
N988        C998   1.352   1_455  A
N989        N990   1.316       .  A
N989       N2203   1.313       .  A
N989       Mn996   2.184       .  S
N990        C999   1.351       .  A
N991       N2201   1.314   1_455  A
N991        N992   1.319       .  A
N991       Mn995   2.188       .  S
N992       C2211   1.352   1_455  A
N993       N2199   1.314       .  A
N993        N994   1.320       .  A
N993       Mn996   2.199       .  S
N994       C2210   1.354       .  A
Mn995      Cl997   2.542   1_455  S
Mn996     Cl2209   2.542       .  S
Cl997     Mn1893   2.544   1_556  S
Cl997     Mn2208   2.544       .  S
C998       N2206   1.356       .  A
C998       C1158   1.485       .  S
C999       N2204   1.355       .  A
C999       C1175   1.478       .  S
N1000      N1001   1.320       .  A
N1000     Mn1029   2.194       .  S
N1001      C1008   1.354       .  A
N1002      N1003   1.320       .  A
N1002     Mn1018   2.202       .  S
N1004      N1005   1.317       .  A
N1004     Mn1029   2.192       .  S
N1005      C1009   1.352       .  A
N1006      N1007   1.320       .  A
N1006     Mn1018   2.193       .  S
C1008      C1049   1.484       .  S
C1009      C1077   1.479       .  S
N1010      N1011   1.318       .  A
N1010     Mn1040   2.192       .  S
N1011      C1019   1.353       .  A
N1012      N1013   1.319       .  A
N1012     Mn1018   2.196       .  S
N1013      C1020   1.354       .  A
N1014      N1015   1.319       .  A
N1014     Mn1040   2.200       .  S
N1016      N1017   1.319       .  A
N1016     Mn1018   2.198       .  S
C1019      C1133   1.476       .  S
C1020      C1144   1.480       .  S
N1021      N1022   1.319       .  A
N1021     Mn1029   2.199       .  S
N1023      N1024   1.320       .  A
N1023     Mn1041   2.203       .  S
N1025      N1026   1.319       .  A
N1025     Mn1029   2.190       .  S
N1026      C1031   1.354   1_565  A
N1027      N1028   1.320       .  A
N1027     Mn1041   2.200       .  S
N1028      C1030   1.354       .  A
C1030      C1119   1.481       .  S
C1031      C1102   1.488       .  S
N1032      N1033   1.319       .  A
N1032     Mn1040   2.193       .  S
N1034      N1035   1.321       .  A
N1034     Mn1041   2.204       .  S
N1035      C1044   1.355       .  A
N1036      N1037   1.321       .  A
N1036     Mn1040   2.204       .  S
N1038      N1039   1.321       .  A
N1038     Mn1041   2.200       .  S
N1039      C1043   1.355       .  A
Mn1041    Cl1042   2.549       .  S
C1043      C1060   1.485       .  S
C1044      C1091   1.483       .  S
C1045      C1050   1.403       .  A
C1045      H1052   1.084       .  S
C1046      C1047   1.413       .  A
C1047      C1048   1.403       .  A
C1047      N1054   1.433       .  S
C1048      C1049   1.405       .  A
C1048      H1053   1.084       .  S
C1050      N1051   1.433       .  S
N1051      H1055   1.046       .  S
N1051      H1056   1.046       .  S
N1054      H1057   1.046       .  S
N1054      H1058   1.046       .  S
C1059      C1060   1.405       .  A
C1059      C1064   1.404       .  A
C1059      H1066   1.084       .  S
C1061      C1062   1.402       .  A
C1061      N1068   1.432       .  S
C1062      H1067   1.084       .  S
C1063      C1064   1.413       .  A
C1064      N1065   1.433       .  S
N1065      H1069   1.046       .  S
N1065      H1070   1.046       .  S
N1068      H1071   1.046       .  S
N1068      H1072   1.045       .  S
C1073      C1074   1.403   1_556  A
C1073      C1078   1.399       .  A
C1073      H1080   1.084       .  S
C1074      C1075   1.412       .  A
C1075      C1076   1.401       .  A
C1075      N1082   1.433       .  S
C1076      C1077   1.404   1_554  A
C1076      H1081   1.084       .  S
C1077      C1078   1.411       .  A
C1078      N1079   1.433       .  S
N1079      H1084   1.046       .  S
N1082      H1085   1.046       .  S
N1082      H1086   1.045       .  S
C1087      H1094   1.083       .  S
C1088      C1089   1.414       .  A
C1089      C1090   1.402       .  A
C1089      N1096   1.433       .  S
C1090      C1091   1.403       .  A
C1090      H1095   1.084       .  S
C1091      C1092   1.413   1_556  A
N1093      H1097   1.046       .  S
N1093      H1098   1.046       .  S
N1096      H1099   1.046       .  S
N1096      H1100   1.045       .  S
C1101      C1102   1.407   1_565  A
C1101      C1106   1.406       .  A
C1101      H1108   1.083       .  S
C1102      C1103   1.418       .  A
C1103      C1104   1.396       .  A
C1103      N1110   1.432       .  S
C1104      C1105   1.403   1_545  A
C1104      H1109   1.084       .  S
C1105      C1106   1.415       .  A
C1106      N1107   1.438       .  S
N1107      H1111   1.046       .  S
N1107      H1112   1.045       .  S
C1115      C1116   1.404       .  A
C1115      H1122   1.084       .  S
C1116      C1117   1.412   1_565  A
C1117      N1124   1.433       .  S
C1118      C1119   1.404       .  A
C1118      H1123   1.084       .  S
C1119      C1120   1.412       .  A
C1120      N1121   1.433       .  S
N1121      H1125   1.046       .  S
N1121      H1126   1.046       .  S
N1124      H1127   1.046       .  S
N1124      H1128   1.046       .  S
C1129      C1134   1.404       .  A
C1129      H1136   1.084       .  S
C1130      C1131   1.410       .  A
C1131      C1132   1.399       .  A
C1131      N1138   1.431       .  S
C1132      C1133   1.403       .  A
C1132      H1137   1.084       .  S
C1134      N1135   1.432       .  S
N1135      H1139   1.046       .  S
N1135      H1140   1.046       .  S
N1138      H1141   1.046       .  S
N1138      H1142   1.046       .  S
C1143      C1144   1.404       .  A
C1143      C1148   1.401       .  A
C1143      H1150   1.084       .  S
C1145      C1146   1.399       .  A
C1145      N1152   1.432       .  S
C1146      C1147   1.403       .  A
C1146      H1151   1.084       .  S
C1148      N1149   1.432       .  S
N1149      H1153   1.046       .  S
N1149      H1154   1.046       .  S
N1152      H1155   1.045       .  S
N1152      H1156   1.046       .  S
C1157      C2370   1.405       .  A
C1157      C1162   1.404       .  A
C1157      H1164   1.084       .  S
C1158      C2369   1.404       .  A
C1158      C1159   1.414   1_655  A
C1159      C1160   1.404       .  A
C1159      N1166   1.433       .  S
C1160      C2373   1.404   1_455  A
C1160      H1165   1.084       .  S
C1161      C2372   1.404       .  A
C1161      C1162   1.412       .  A
C1162      N1163   1.432       .  S
N1163      H1167   1.046       .  S
N1163      H1168   1.046       .  S
N1166      H1169   1.046       .  S
N1166      H1170   1.046       .  S
C1171      C2384   1.404   1_455  A
C1171      C1176   1.402       .  A
C1171      H1178   1.084       .  S
C1172      C2383   1.406       .  A
C1172      C1173   1.411       .  A
C1173      C1174   1.397       .  A
C1173      N1180   1.433       .  S
C1174      C1175   1.403       .  A
C1174      H1179   1.084       .  S
C1175      C2388   1.410       .  A
C1176      C2387   1.410   1_455  A
C1176      N1177   1.433       .  S
N1177      H1181   1.046       .  S
N1177      H1182   1.046       .  S
N1180      H1183   1.046       .  S
N1180      H1184   1.046       .  S
C1185      C2398   1.405   1_455  A
C1185      C1190   1.405       .  A
C1185      H1192   1.084       .  S
C1186      C2397   1.405       .  A
C1186      C1187   1.411       .  A
C1187      C1188   1.400       .  A
C1187      N1194   1.433       .  S
C1188      C2401   1.405       .  A
C1188      H1193   1.084       .  S
C1189      C2400   1.405       .  A
C1189      C1190   1.414   1_655  A
C1190      N1191   1.432       .  S
N1191      H1195   1.046       .  S
N1191      H1196   1.046       .  S
N1194      H1197   1.046       .  S
N1194      H1198   1.046       .  S
C1199      C2412   1.405       .  A
C1199      C1204   1.400       .  A
C1199      H1206   1.084       .  S
C1200      C2411   1.408       .  A
C1200      C1201   1.418   1_655  A
C1201      C1202   1.397       .  A
C1201      N1208   1.431       .  S
C1202      C1203   1.405   1_455  A
C1202      H1207   1.084       .  S
C1203      C2416   1.413       .  A
C1204      C2415   1.411       .  A
C1204      N1205   1.432       .  S
N1205      H1209   1.046       .  S
N1205      H1210   1.046       .  S
N1208      H1211   1.044       .  S
N1208      H1212   1.045       .  S
N1213      N1214   1.320       .  A
N1213      N1825   1.314       .  A
N1213     Mn1242   2.195       .  S
N1214      C1827   1.353       .  A
N1215      N1823   1.315   1_545  A
N1215      N1216   1.318       .  A
N1215     Mn1231   2.191       .  S
N1216      C1828   1.351       .  A
N1217      N1821   1.315       .  A
N1217      N1218   1.322       .  A
N1217     Mn1242   2.215       .  S
N1218      C1222   1.356       .  A
N1219      N1819   1.315   1_545  A
N1219      N1220   1.320       .  A
N1219     Mn1231   2.199       .  S
N1220      C1221   1.354       .  A
C1221      N1820   1.353   1_545  A
C1221      C1433   1.482       .  S
C1222      N1822   1.356       .  A
C1222      C1419   1.495       .  S
N1223      N1224   1.321       .  A
N1223     Mn1253   2.192       .  S
N1224      C1232   1.354       .  A
N1225      N1226   1.320       .  A
N1225     Mn1231   2.200       .  S
N1226      C1233   1.354       .  A
N1227      N1228   1.322       .  A
N1227     Mn1253   2.211       .  S
N1229      N1230   1.318       .  A
N1229     Mn1231   2.198       .  S
Mn1231    Cl1255   2.541       .  S
C1232      C1464   1.482       .  S
C1233      C1503   1.491       .  S
N1234      N1235   1.317       .  A
N1234     Mn1242   2.191       .  S
N1236      N1237   1.322       .  A
N1236     Mn1254   2.209       .  S
N1238      N1239   1.321       .  A
N1238     Mn1242   2.207       .  S
N1239      C1244   1.355       .  A
N1240      N1241   1.320       .  A
N1240     Mn1254   2.198       .  S
N1241      C1243   1.354       .  A
Mn1242    Cl1861   2.546       .  S
C1243      C1475   1.481       .  S
C1244      C1492   1.488       .  S
N1245      N1246   1.316       .  A
N1245      N1857   1.314   1_545  A
N1245     Mn1253   2.186       .  S
N1246      C1256   1.351   1_545  A
N1247      N1248   1.320       .  A
N1247      N1855   1.314       .  A
N1247     Mn1254   2.215       .  S
N1248      C1257   1.356       .  A
N1249      N1853   1.315   1_545  A
N1249      N1250   1.321       .  A
N1249     Mn1253   2.204       .  S
N1250      C1863   1.355       .  A
N1251      N1851   1.315       .  A
N1251      N1252   1.320       .  A
N1251     Mn1254   2.199       .  S
N1252      C1862   1.353       .  A
Cl1255    Mn1848   2.547   1_545  S
C1256      N1858   1.353       .  A
C1256      C1450   1.474   1_565  S
C1257      N1856   1.354       .  A
C1257      C1408   1.491       .  S
N1258      N1259   1.321       .  A
N1258     Mn1287   2.205       .  S
N1260      N1261   1.322       .  A
N1260     Mn1276   2.210       .  S
N1262      N1263   1.320       .  A
N1262     Mn1287   2.198       .  S
N1263      C1267   1.353       .  A
N1264      N1265   1.319       .  A
N1264     Mn1276   2.197       .  S
N1265      C1266   1.353       .  A
C1266      C1506   1.486       .  S
C1267      C1489   1.488       .  S
N1268      N1577   1.315       .  A
N1268      N1269   1.322       .  A
N1268     Mn1298   2.212       .  S
N1269      C1277   1.357       .  A
N1270      N1271   1.321       .  A
N1270      N1575   1.314   1_554  A
N1270     Mn1276   2.208       .  S
N1271      C1581   1.356   1_554  A
N1272      N1573   1.314       .  A
N1272      N1273   1.320       .  A
N1272     Mn1298   2.201       .  S
N1273      C1278   1.354       .  A
N1274      N1571   1.314   1_554  A
N1274      N1275   1.319       .  A
N1274     Mn1276   2.199       .  S
N1275      C1580   1.353   1_554  A
Mn1276    Cl1603   2.544   1_554  S
C1277      N1578   1.351       .  A
C1277      C1377   1.486       .  S
C1278      N1574   1.353       .  A
C1278      C1391   1.481       .  S
N1279      N1280   1.320       .  A
N1279      N1588   1.314   1_554  A
N1279     Mn1287   2.203       .  S
N1280      C1591   1.355   1_554  A
N1281      N1586   1.314       .  A
N1281      N1282   1.319       .  A
N1281     Mn1299   2.195       .  S
N1282      C1289   1.353       .  A
N1283      N1584   1.314   1_554  A
N1283      N1284   1.319       .  A
N1283     Mn1287   2.200       .  S
N1284      C1592   1.354   1_554  A
N1285      N1582   1.315       .  A
N1285      N1286   1.319       .  A
N1285     Mn1299   2.197       .  S
N1286      C1288   1.353       .  A
C1288      N1583   1.356       .  A
C1288      C1349   1.487       .  S
C1289      N1587   1.355       .  A
C1289      C1366   1.484       .  S
N1290      N1291   1.318       .  A
N1290     Mn1298   2.201       .  S
N1291      C1301   1.353       .  A
N1292      N1293   1.320       .  A
N1292     Mn1299   2.199       .  S
N1293      C1302   1.354       .  A
N1294      N1295   1.319       .  A
N1294     Mn1298   2.203       .  S
N1296      N1297   1.321       .  A
N1296     Mn1299   2.196       .  S
Mn1298    Cl1300   2.546       .  S
Cl1300    Mn1579   2.542       .  S
C1301      C1461   1.483       .  S
C1302      C1478   1.481       .  S
N1303      N1304   1.320       .  A
N1303      N1612   1.316       .  A
N1303     Mn1332   2.212       .  S
N1304      C1311   1.356       .  A
N1305      N1610   1.315   1_554  A
N1305      N1306   1.320       .  A
N1305     Mn1321   2.200       .  S
N1306      C1615   1.354   1_554  A
N1307      N1608   1.315       .  A
N1307      N1308   1.318       .  A
N1307     Mn1332   2.193       .  S
N1308      C1312   1.352       .  A
N1309      N1606   1.315   1_554  A
N1309      N1310   1.320       .  A
N1309     Mn1321   2.201       .  S
N1310      C1614   1.354   1_554  A
C1311      N1613   1.353       .  A
C1311      C1352   1.485       .  S
C1312      N1609   1.356       .  A
C1312      C1380   1.485       .  S
N1313      N1925   1.315   1_545  A
N1313      N1314   1.318       .  A
N1313     Mn1343   2.194       .  S
N1314      C1322   1.353   1_545  A
N1315      N1316   1.322       .  A
N1315      N1923   1.314       .  A
N1315     Mn1321   2.204       .  S
N1316      C1323   1.355       .  A
N1317      N1921   1.314   1_545  A
N1317      N1318   1.318       .  A
N1317     Mn1343   2.190       .  S
N1318      C1929   1.352       .  A
N1319      N1919   1.314       .  A
N1319      N1320   1.323       .  A
N1319     Mn1321   2.208       .  S
N1320      C1928   1.356       .  A
Mn1321    Cl2254   2.549   1_554  S
C1322      N1926   1.354       .  A
C1322      C1436   1.483       .  S
C1323      N1924   1.352       .  A
C1323      C1447   1.484       .  S
N1324      N1325   1.321       .  A
N1324      N1936   1.315       .  A
N1324     Mn1332   2.214       .  S
N1325      C1939   1.355       .  A
N1326      N1934   1.314   1_545  A
N1326      N1327   1.319       .  A
N1326     Mn1344   2.195       .  S
N1327      C1940   1.353       .  A
N1328      N1932   1.313       .  A
N1328      N1329   1.319       .  A
N1328     Mn1332   2.203       .  S
N1329      C1334   1.355       .  A
N1330      N1930   1.315   1_545  A
N1330      N1331   1.320       .  A
N1330     Mn1344   2.199       .  S
N1331      C1333   1.354       .  A
Mn1332    Cl1951   2.539       .  S
C1333      N1931   1.354   1_545  A
C1333      C1422   1.483       .  S
C1334      N1933   1.354       .  A
C1334      C1405   1.491       .  S
N1335      N1336   1.320       .  A
N1335      N1644   1.314   1_554  A
N1335     Mn1343   2.200       .  S
N1336      C1649   1.354   1_554  A
N1337      N1338   1.320       .  A
N1337      N1642   1.313       .  A
N1337     Mn1344   2.199       .  S
N1338      C1347   1.355       .  A
N1339      N1640   1.314   1_554  A
N1339      N1340   1.320       .  A
N1339     Mn1343   2.194       .  S
N1340      C1650   1.353   1_554  A
N1341      N1638   1.314       .  A
N1341      N1342   1.320       .  A
N1341     Mn1344   2.202       .  S
N1342      C1346   1.355       .  A
Mn1343    Cl1648   2.544   1_554  S
Mn1344    Cl1345   2.547       .  S
Cl1345    Mn2230   2.547   1_545  S
Cl1345    Mn1938   2.542   1_545  S
Cl1345    Mn1646   2.542       .  S
C1346      N1639   1.353       .  A
C1346      C1363   1.484       .  S
C1347      N1643   1.352       .  A
C1347      C1394   1.481       .  S
C1348      C1652   1.405   1_554  A
C1348      C1353   1.403       .  A
C1348      H1355   1.084       .  S
C1349      C1651   1.405       .  A
C1349      C1350   1.413       .  A
C1350      C1351   1.402       .  A
C1350      N1357   1.432       .  S
C1351      C1352   1.403       .  A
C1351      H1356   1.084       .  S
C1352      C1656   1.413       .  A
C1353      C1655   1.410   1_554  A
C1353      N1354   1.432       .  S
N1354      H1358   1.046       .  S
N1354      H1359   1.046       .  S
N1357      H1360   1.046       .  S
N1357      H1361   1.046       .  S
C1362      C1363   1.405       .  A
C1362      C1367   1.403       .  A
C1362      H1369   1.084       .  S
C1363      C1667   1.413       .  A
C1364      C1666   1.412   1_554  A
C1364      C1365   1.402       .  A
C1364      N1371   1.432       .  S
C1365      C1669   1.405   1_554  A
C1365      H1370   1.084       .  S
C1366      C1668   1.404       .  A
C1366      C1367   1.412       .  A
C1367      N1368   1.433       .  S
N1368      H1372   1.046       .  S
N1368      H1373   1.046       .  S
N1371      H1374   1.045       .  S
N1371      H1375   1.046       .  S
C1376      C1377   1.403       .  A
C1376      C1381   1.402       .  A
C1376      H1383   1.084       .  S
C1377      C1378   1.415       .  A
C1378      C1379   1.404       .  A
C1378      N1385   1.433       .  S
C1379      C1380   1.404       .  A
C1379      H1384   1.084       .  S
C1380      C1381   1.414       .  A
C1381      N1382   1.432       .  S
N1382      H1689   1.045       .  S
N1382      H1387   1.046       .  S
N1385      H1388   1.046       .  S
N1385      H1389   1.045       .  S
H1386      N1685   1.046       .  S
C1390      C1694   1.405   1_554  A
C1390      C1698   1.404       .  A
C1390      H1397   1.084       .  S
C1391      C1693   1.404       .  A
C1391      C1392   1.410       .  A
C1392      C1393   1.402       .  A
C1392      N1399   1.431       .  S
C1393      C1394   1.404       .  A
C1393      H1398   1.084       .  S
C1394      C1395   1.412       .  A
C1395      C1693   1.401       .  A
C1395      N1699   1.432       .  S
N1396      C1698   1.432       .  S
N1396      H1400   1.046       .  S
N1396      H1401   1.046       .  S
N1399      H1402   1.045       .  S
N1399      H1403   1.046       .  S
C1404      C1405   1.404       .  A
C1404      C1409   1.400       .  A
C1404      H1411   1.083       .  S
C1405      C1406   1.420       .  A
C1406      C1407   1.406       .  A
C1406      N1413   1.433       .  S
C1407      C1408   1.408       .  A
C1407      H1412   1.084       .  S
C1408      C1409   1.411       .  A
C1409      N1410   1.432       .  S
N1410      H1414   1.046       .  S
N1410      H1415   1.046       .  S
N1413      H2022   1.046       .  S
N1413      H2023   1.045       .  S
H1416      N2019   1.046       .  S
H1417      N2019   1.044       .  S
C1418      C1419   1.406       .  A
C1418      C2029   1.407       .  A
C1418      H1425   1.083       .  S
C1419      C1420   1.414       .  A
C1420      C2027   1.408       .  A
C1420      N1427   1.432       .  S
C1421      C2026   1.403       .  A
C1421      C1422   1.403       .  A
C1421      H1426   1.084       .  S
C1422      C1423   1.410   1_545  A
C1423      C2024   1.403       .  A
C1423      N1424   1.430       .  S
N1424      H1428   1.046       .  S
N1424      H1429   1.045       .  S
N1427      H1430   1.046       .  S
N1427      H1431   1.046       .  S
C1432      C2039   1.407       .  A
C1432      C1437   1.405       .  A
C1432      H1439   1.084       .  S
C1433      C2038   1.405   1_545  A
C1433      C1434   1.411       .  A
C1434      C1435   1.401       .  A
C1434      N1441   1.432       .  S
C1435      C1436   1.405   1_545  A
C1435      H1440   1.084       .  S
C1436      C2043   1.411       .  A
C1437      C2042   1.410       .  A
C1437      N1438   1.432       .  S
N1438      H1442   1.046       .  S
N1438      H1443   1.046       .  S
N1441      H1444   1.046       .  S
N1441      H1445   1.045       .  S
C1446      C1447   1.405       .  A
C1446      C1451   1.405       .  A
C1446      H1453   1.084       .  S
C1447      C2054   1.413       .  A
C1448      C2053   1.410       .  A
C1448      C1449   1.397       .  A
C1448      N1455   1.433       .  S
C1449      C1450   1.404       .  A
C1449      H1454   1.084       .  S
C1450      C2057   1.410   1_545  A
C1451      C2056   1.412       .  A
C1451      N1452   1.432       .  S
N1452      H1456   1.046       .  S
N1452      H1457   1.045       .  S
N1455      H1458   1.046       .  S
N1455      H1459   1.046       .  S
C1460      C1465   1.406       .  A
C1460      H1467   1.084       .  S
C1461      C1462   1.411       .  A
C1462      C1463   1.399       .  A
C1462      N1469   1.431       .  S
C1463      H1468   1.084       .  S
C1464      C1465   1.412       .  A
C1465      N1466   1.433       .  S
N1466      H1470   1.046       .  S
N1466      H1471   1.046       .  S
N1469      H1472   1.045       .  S
N1469      H1473   1.045       .  S
C1474      C1479   1.399       .  A
C1474      H1481   1.084       .  S
C1475      C1476   1.414       .  A
C1476      C1477   1.406       .  A
C1476      N1483   1.438       .  S
C1477      C1478   1.405       .  A
C1477      H1482   1.083       .  S
C1479      N1480   1.432       .  S
N1480      H1484   1.046       .  S
N1480      H1485   1.046       .  S
N1483      H1486   1.047       .  S
N1483      H1487   1.044       .  S
C1488      C1493   1.404       .  A
C1488      H1495   1.084       .  S
C1489      C1490   1.414       .  A
C1490      C1491   1.405       .  A
C1490      N1497   1.432       .  S
C1491      H1496   1.084       .  S
C1492      C1493   1.412       .  A
C1493      N1494   1.432       .  S
N1494      H1498   1.046       .  S
N1494      H1499   1.046       .  S
N1497      H1500   1.046       .  S
N1497      H1501   1.046       .  S
C1502      C1507   1.406       .  A
C1502      H1509   1.084       .  S
C1503      C1504   1.420       .  A
C1504      C1505   1.399       .  A
C1504      N1511   1.432       .  S
C1505      C1506   1.405       .  A
C1505      H1510   1.084       .  S
C1507      N1508   1.432       .  S
N1508      H1512   1.046       .  S
N1508      H1513   1.046       .  S
N1511      H1514   1.046       .  S
N1511      H1515   1.044       .  S
N1516      N1517   1.317       .  A
N1516      N2128   1.315       .  A
N1516     Mn1545   2.186       .  S
N1517      C2130   1.352       .  A
N1518      N2126   1.314   1_545  A
N1518      N1519   1.320       .  A
N1518     Mn1534   2.197       .  S
N1519      C2131   1.354       .  A
N1520      N2124   1.315       .  A
N1520      N1521   1.317       .  A
N1520     Mn1545   2.193       .  S
N1521      C1525   1.352       .  A
N1522      N2122   1.315   1_545  A
N1522      N1523   1.318       .  A
N1522     Mn1534   2.193       .  S
N1523      C1524   1.352       .  A
C1524      N2123   1.355   1_545  A
C1524      C1736   1.482       .  S
C1525      N2125   1.353       .  A
C1525      C1722   1.476       .  S
N1526      N1527   1.319       .  A
N1526     Mn1556   2.189       .  S
N1527      C1535   1.352       .  A
N1528      N1529   1.319       .  A
N1528     Mn1534   2.194       .  S
N1529      C1536   1.352       .  A
N1530      N1531   1.320       .  A
N1530     Mn1556   2.209       .  S
N1532      N1533   1.318       .  A
N1532     Mn1534   2.197       .  S
Mn1534    Cl1558   2.540       .  S
C1535      C1767   1.479       .  S
C1536      C1806   1.486       .  S
N1537      N1538   1.320       .  A
N1537     Mn1545   2.194       .  S
N1539      N1540   1.322       .  A
N1539     Mn1557   2.210       .  S
N1541      N1542   1.321       .  A
N1541     Mn1545   2.198       .  S
N1542      C1547   1.354       .  A
N1543      N1544   1.317       .  A
N1543     Mn1557   2.186       .  S
N1544      C1546   1.352       .  A
Mn1545    Cl2164   2.542       .  S
C1546      C1778   1.478       .  S
C1547      C1795   1.485       .  S
N1548      N1549   1.319       .  A
N1548      N2160   1.315   1_545  A
N1548     Mn1556   2.197       .  S
N1549      C1559   1.354   1_545  A
N1550      N1551   1.321       .  A
N1550      N2158   1.315       .  A
N1550     Mn1557   2.208       .  S
N1551      C1560   1.354       .  A
N1552      N2156   1.315   1_545  A
N1552      N1553   1.320       .  A
N1552     Mn1556   2.198       .  S
N1553      C2166   1.354       .  A
N1554      N2154   1.314       .  A
N1554      N1555   1.318       .  A
N1554     Mn1557   2.187       .  S
N1555      C2165   1.352       .  A
Cl1558    Mn2151   2.546   1_545  S
C1559      N2161   1.352       .  A
C1559      C1753   1.480       .  S
C1560      N2159   1.354       .  A
C1560      C1711   1.484       .  S
N1561      N1562   1.320       .  A
N1561     Mn1590   2.206       .  S
N1563      N1564   1.321       .  A
N1563     Mn1579   2.199       .  S
N1565      N1566   1.319       .  A
N1565     Mn1590   2.195       .  S
N1566      C1570   1.353       .  A
N1567      N1568   1.320       .  A
N1567     Mn1579   2.198       .  S
N1568      C1569   1.354       .  A
C1569      C1809   1.483       .  S
C1570      C1792   1.487       .  S
N1571      N1572   1.321       .  A
N1571     Mn1601   2.200       .  S
N1572      C1580   1.355       .  A
N1573      N1574   1.318       .  A
N1573     Mn1579   2.192       .  S
N1575      N1576   1.318       .  A
N1575     Mn1601   2.192       .  S
N1576      C1581   1.352       .  A
N1577      N1578   1.318       .  A
N1577     Mn1579   2.193       .  S
C1580      C1680   1.485       .  S
C1581      C1694   1.485       .  S
N1582      N1583   1.322       .  A
N1582     Mn1590   2.207       .  S
N1584      N1585   1.320       .  A
N1584     Mn1602   2.197       .  S
N1585      C1592   1.354       .  A
N1586      N1587   1.320       .  A
N1586     Mn1590   2.201       .  S
N1588      N1589   1.318       .  A
N1588     Mn1602   2.190       .  S
N1589      C1591   1.352       .  A
C1591      C1652   1.481       .  S
C1592      C1669   1.484       .  S
N1593      N1594   1.317       .  A
N1593     Mn1601   2.196       .  S
N1594      C1604   1.352       .  A
N1595      N1596   1.318       .  A
N1595     Mn1602   2.196       .  S
N1596      C1605   1.354       .  A
N1597      N1598   1.319       .  A
N1597     Mn1601   2.191       .  S
N1599      N1600   1.320       .  A
N1599     Mn1602   2.192       .  S
Mn1601    Cl1603   2.544       .  S
C1604      C1764   1.483       .  S
C1605      C1781   1.478       .  S
N1606      N1607   1.317       .  A
N1606     Mn1635   2.190       .  S
N1607      C1614   1.352       .  A
N1608      N1609   1.321       .  A
N1608     Mn1624   2.203       .  S
N1610      N1611   1.320       .  A
N1610     Mn1635   2.203       .  S
N1611      C1615   1.354       .  A
N1612      N1613   1.320       .  A
N1612     Mn1624   2.196       .  S
C1614      C1655   1.479       .  S
C1615      C1683   1.485       .  S
N1616      N2228   1.315   1_545  A
N1616      N1617   1.318       .  A
N1616     Mn1646   2.191       .  S
N1617      C1625   1.353       .  A
N1618      N1619   1.320       .  A
N1618      N2226   1.314       .  A
N1618     Mn1624   2.197       .  S
N1619      C1626   1.354       .  A
N1620      N2224   1.314   1_545  A
N1620      N1621   1.317       .  A
N1620     Mn1646   2.188       .  S
N1621      C2232   1.351       .  A
N1622      N2222   1.315       .  A
N1622      N1623   1.319       .  A
N1622     Mn1624   2.199       .  S
N1623      C2231   1.354       .  A
Mn1624    Cl1951   2.549       .  S
C1625      N2229   1.355   1_545  A
C1625      C1739   1.482       .  S
C1626      N2227   1.351       .  A
C1626      C1750   1.479       .  S
N1627      N1628   1.317       .  A
N1627      N2239   1.314       .  A
N1627     Mn1635   2.192       .  S
N1628      C2242   1.352       .  A
N1629      N2237   1.314   1_545  A
N1629      N1630   1.321       .  A
N1629     Mn1647   2.204       .  S
N1630      C2243   1.355       .  A
N1631      N2235   1.315       .  A
N1631      N1632   1.322       .  A
N1631     Mn1635   2.207       .  S
N1632      C1637   1.356       .  A
N1633      N2233   1.315   1_545  A
N1633      N1634   1.319       .  A
N1633     Mn1647   2.192       .  S
N1634      C1636   1.353       .  A
Mn1635    Cl2254   2.541       .  S
C1636      N2234   1.355   1_545  A
C1636      C1725   1.484       .  S
C1637      N2236   1.353       .  A
C1637      C1708   1.488       .  S
N1638      N1639   1.319       .  A
N1638     Mn1646   2.197       .  S
N1640      N1641   1.319       .  A
N1640     Mn1647   2.203       .  S
N1641      C1650   1.355       .  A
N1642      N1643   1.318       .  A
N1642     Mn1646   2.189       .  S
N1644      N1645   1.319       .  A
N1644     Mn1647   2.195       .  S
N1645      C1649   1.354       .  A
Mn1647    Cl1648   2.544       .  S
Cl1648    Mn1927   2.542   1_546  S
Cl1648    Mn2241   2.544   1_545  S
C1649      C1666   1.484       .  S
C1650      C1697   1.485       .  S
C1651      C1656   1.405       .  A
C1651      H1658   1.084       .  S
C1652      C1653   1.412       .  A
C1653      C1654   1.399       .  A
C1653      N1660   1.433       .  S
C1654      C1655   1.403       .  A
C1654      H1659   1.084       .  S
C1656      N1657   1.433       .  S
N1657      H1661   1.046       .  S
N1657      H1662   1.045       .  S
N1660      H1663   1.046       .  S
N1660      H1664   1.046       .  S
C1665      C1666   1.405       .  A
C1665      C1670   1.403       .  A
C1665      H1672   1.084       .  S
C1667      C1668   1.402       .  A
C1667      N1674   1.432       .  S
C1668      H1673   1.084       .  S
C1669      C1670   1.412       .  A
C1670      N1671   1.432       .  S
N1671      H1675   1.046       .  S
N1671      H1676   1.046       .  S
N1674      H1677   1.045       .  S
N1674      H1678   1.046       .  S
C1679      C1680   1.405       .  A
C1679      C1684   1.404       .  A
C1679      H1686   1.084       .  S
C1680      C1681   1.412   1_556  A
C1681      C1682   1.402       .  A
C1681      N1688   1.433       .  S
C1682      C1683   1.404   1_554  A
C1682      H1687   1.084       .  S
C1683      C1684   1.413       .  A
C1684      N1685   1.432       .  S
N1685      H1690   1.046       .  S
N1688      H1691   1.046       .  S
N1688      H1692   1.045       .  S
C1693      H1700   1.084       .  S
C1694      C1695   1.413       .  A
C1695      C1696   1.401       .  A
C1695      N1702   1.432       .  S
C1696      C1697   1.403       .  A
C1696      H1701   1.084       .  S
C1697      C1698   1.413   1_556  A
N1699      H1703   1.046       .  S
N1699      H1704   1.046       .  S
N1702      H1705   1.045       .  S
N1702      H1706   1.046       .  S
C1707      C1708   1.406       .  A
C1707      C1712   1.406       .  A
C1707      H1714   1.084       .  S
C1708      C1709   1.419       .  A
C1709      C1710   1.398       .  A
C1709      N1716   1.432       .  S
C1710      C1711   1.402       .  A
C1710      H1715   1.084       .  S
C1711      C1712   1.410       .  A
C1712      N1713   1.432       .  S
N1713      H1717   1.046       .  S
N1713      H1718   1.045       .  S
N1716      H2325   1.045       .  S
N1716      H2326   1.045       .  S
H1719      N2322   1.046       .  S
H1720      N2322   1.044       .  S
C1721      C1722   1.403       .  A
C1721      C2332   1.398       .  A
C1721      H1728   1.084       .  S
C1722      C1723   1.410       .  A
C1723      C2330   1.403       .  A
C1723      N1730   1.433       .  S
C1724      C2329   1.403       .  A
C1724      C1725   1.406       .  A
C1724      H1729   1.084       .  S
C1725      C1726   1.411   1_545  A
C1726      C2327   1.402       .  A
C1726      N1727   1.432       .  S
N1727      H1731   1.046       .  S
N1727      H1732   1.045       .  S
N1730      H1733   1.046       .  S
N1730      H1734   1.046       .  S
C1735      C2342   1.405       .  A
C1735      C1740   1.401       .  A
C1735      H1742   1.084       .  S
C1736      C2341   1.404   1_545  A
C1736      C1737   1.412       .  A
C1737      C1738   1.401       .  A
C1737      N1744   1.433       .  S
C1738      C1739   1.405       .  A
C1738      H1743   1.084       .  S
C1739      C2346   1.411   1_545  A
C1740      C2345   1.410       .  A
C1740      N1741   1.432       .  S
N1741      H1745   1.046       .  S
N1741      H1746   1.046       .  S
N1744      H1747   1.045       .  S
N1744      H1748   1.046       .  S
C1749      C1750   1.404       .  A
C1749      C1754   1.401       .  A
C1749      H1756   1.084       .  S
C1750      C2357   1.412       .  A
C1751      C2356   1.413       .  A
C1751      C1752   1.400       .  A
C1751      N1758   1.433       .  S
C1752      C1753   1.403   1_545  A
C1752      H1757   1.084       .  S
C1753      C2360   1.412       .  A
C1754      C2359   1.411       .  A
C1754      N1755   1.433       .  S
N1755      H1759   1.046       .  S
N1755      H1760   1.045       .  S
N1758      H1761   1.046       .  S
N1758      H1762   1.046       .  S
C1763      C1768   1.403       .  A
C1763      H1770   1.084       .  S
C1764      C1765   1.412       .  A
C1765      C1766   1.398       .  A
C1765      N1772   1.432       .  S
C1766      H1771   1.084       .  S
C1767      C1768   1.412       .  A
C1768      N1769   1.433       .  S
N1769      H1773   1.046       .  S
N1769      H1774   1.046       .  S
N1772      H1775   1.046       .  S
N1772      H1776   1.045       .  S
C1777      C1782   1.402       .  A
C1777      H1784   1.084       .  S
C1778      C1779   1.412       .  A
C1779      C1780   1.398       .  A
C1779      N1786   1.432       .  S
C1780      C1781   1.402       .  A
C1780      H1785   1.084       .  S
C1782      N1783   1.433       .  S
N1783      H1787   1.046       .  S
N1783      H1788   1.045       .  S
N1786      H1789   1.045       .  S
N1786      H1790   1.046       .  S
C1791      C1796   1.405       .  A
C1791      H1798   1.084       .  S
C1792      C1793   1.414       .  A
C1793      C1794   1.405       .  A
C1793      N1800   1.433       .  S
C1794      H1799   1.084       .  S
C1795      C1796   1.413       .  A
C1796      N1797   1.432       .  S
N1797      H1801   1.046       .  S
N1797      H1802   1.046       .  S
N1800      H1803   1.046       .  S
N1800      H1804   1.046       .  S
C1805      C1810   1.402       .  A
C1805      H1812   1.083       .  S
C1806      C1807   1.419       .  A
C1807      C1808   1.400       .  A
C1807      N1814   1.432       .  S
C1808      C1809   1.404       .  A
C1808      H1813   1.084       .  S
C1810      N1811   1.432       .  S
N1811      H1815   1.046       .  S
N1811      H1816   1.046       .  S
N1814      H1817   1.045       .  S
N1814      H1818   1.045       .  S
N1819      N1820   1.318       .  A
N1819     Mn1848   2.193       .  S
N1821      N1822   1.322       .  A
N1821     Mn1837   2.214       .  S
N1823      N1824   1.322       .  A
N1823     Mn1848   2.210       .  S
N1824      C1828   1.356   1_565  A
N1825      N1826   1.319       .  A
N1825     Mn1837   2.198       .  S
N1826      C1827   1.354       .  A
C1827      C2039   1.482       .  S
C1828      C2025   1.483       .  S
N1829      N1830   1.319       .  A
N1829     Mn1859   2.196       .  S
N1830      C1838   1.353       .  A
N1831      N1832   1.321       .  A
N1831     Mn1837   2.211       .  S
N1832      C1839   1.355       .  A
N1833      N1834   1.319       .  A
N1833     Mn1859   2.200       .  S
N1835      N1836   1.319       .  A
N1835     Mn1837   2.198       .  S
Mn1837    Cl1861   2.544       .  S
C1838      C2070   1.481       .  S
C1839      C2109   1.490       .  S
N1840      N1841   1.320       .  A
N1840     Mn1848   2.199       .  S
N1842      N1843   1.318       .  A
N1842     Mn1860   2.192       .  S
N1844      N1845   1.322       .  A
N1844     Mn1848   2.210       .  S
N1845      C1850   1.355       .  A
N1846      N1847   1.318       .  A
N1846     Mn1860   2.191       .  S
N1847      C1849   1.352       .  A
C1849      C2081   1.480       .  S
C1850      C2098   1.491       .  S
N1851      N1852   1.319       .  A
N1851     Mn1859   2.204       .  S
N1852      C1862   1.355       .  A
N1853      N1854   1.318       .  A
N1853     Mn1860   2.192       .  S
N1854      C1863   1.352   1_565  A
N1855      N1856   1.322       .  A
N1855     Mn1859   2.199       .  S
N1857      N1858   1.319       .  A
N1857     Mn1860   2.192       .  S
C1862      C2056   1.483       .  S
C1863      C2014   1.483       .  S
N1864      N1865   1.320       .  A
N1864     Mn1893   2.208       .  S
N1866      N1867   1.322       .  A
N1866     Mn1882   2.210       .  S
N1868      N1869   1.319       .  A
N1868     Mn1893   2.194       .  S
N1869      C1873   1.353       .  A
N1870      N1871   1.319       .  A
N1870     Mn1882   2.196       .  S
N1871      C1872   1.353       .  A
C1872      C2112   1.487       .  S
C1873      C2095   1.481       .  S
N1874      N2183   1.315       .  A
N1874      N1875   1.321       .  A
N1874     Mn1904   2.199       .  S
N1875      C1883   1.355       .  A
N1876      N1877   1.321       .  A
N1876      N2181   1.315   1_554  A
N1876     Mn1882   2.210       .  S
N1877      C2187   1.356   1_554  A
N1878      N2179   1.314       .  A
N1878      N1879   1.318       .  A
N1878     Mn1904   2.197       .  S
N1879      C1884   1.353       .  A
N1880      N2177   1.314   1_554  A
N1880      N1881   1.319       .  A
N1880     Mn1882   2.191       .  S
N1881      C2186   1.352   1_554  A
Mn1882    Cl2209   2.542   1_554  S
C1883      N2184   1.350       .  A
C1883      C1983   1.478       .  S
C1884      N2180   1.351       .  A
C1884      C1997   1.477       .  S
N1885      N1886   1.322       .  A
N1885      N2194   1.315   1_554  A
N1885     Mn1893   2.216       .  S
N1886      C2197   1.358   1_554  A
N1887      N2192   1.314       .  A
N1887      N1888   1.319       .  A
N1887     Mn1905   2.190       .  S
N1888      C1895   1.353       .  A
N1889      N2190   1.315   1_554  A
N1889      N1890   1.319       .  A
N1889     Mn1893   2.193       .  S
N1890      C2198   1.353   1_554  A
N1891      N2188   1.316       .  A
N1891      N1892   1.322       .  A
N1891     Mn1905   2.210       .  S
N1892      C1894   1.355       .  A
C1894      N2189   1.355       .  A
C1894      C1955   1.492       .  S
C1895      N2193   1.352       .  A
C1895      C1972   1.477       .  S
N1896      N1897   1.320       .  A
N1896     Mn1904   2.202       .  S
N1897      C1907   1.354       .  A
N1898      N1899   1.316       .  A
N1898     Mn1905   2.186       .  S
N1899      C1908   1.351       .  A
N1900      N1901   1.320       .  A
N1900     Mn1904   2.201       .  S
N1902      N1903   1.322       .  A
N1902     Mn1905   2.207       .  S
Mn1904    Cl1906   2.546       .  S
Cl1906    Mn2185   2.539       .  S
C1907      C2067   1.484       .  S
C1908      C2084   1.478       .  S
N1909      N1910   1.322       .  A
N1909      N2218   1.316       .  A
N1909     Mn1938   2.210       .  S
N1910      C1917   1.356       .  A
N1911      N2216   1.314   1_554  A
N1911      N1912   1.320       .  A
N1911     Mn1927   2.190       .  S
N1912      C2221   1.354   1_554  A
N1913      N2214   1.314       .  A
N1913      N1914   1.319       .  A
N1913     Mn1938   2.192       .  S
N1914      C1918   1.352       .  A
N1915      N2212   1.315   1_554  A
N1915      N1916   1.320       .  A
N1915     Mn1927   2.206       .  S
N1916      C2220   1.354   1_554  A
C1917      N2219   1.355       .  A
C1917      C1958   1.491       .  S
C1918      N2215   1.354       .  A
C1918      C1986   1.480       .  S
N1919      N1920   1.316       .  A
N1919     Mn1949   2.187       .  S
N1920      C1928   1.351       .  A
N1921      N1922   1.317       .  A
N1921     Mn1927   2.184       .  S
N1922      C1929   1.351   1_565  A
N1923      N1924   1.318       .  A
N1923     Mn1949   2.192       .  S
N1925      N1926   1.320       .  A
N1925     Mn1927   2.203       .  S
C1928      C2042   1.481       .  S
C1929      C2053   1.474       .  S
N1930      N1931   1.320       .  A
N1930     Mn1938   2.207       .  S
N1932      N1933   1.322       .  A
N1932     Mn1950   2.199       .  S
N1934      N1935   1.319       .  A
N1934     Mn1938   2.197       .  S
N1935      C1940   1.355   1_565  A
N1936      N1937   1.322       .  A
N1936     Mn1950   2.210       .  S
N1937      C1939   1.356       .  A
C1939      C2028   1.495       .  S
C1940      C2011   1.486       .  S
N1941      N1942   1.320       .  A
N1941      N2250   1.314   1_554  A
N1941     Mn1949   2.193       .  S
N1942      C2255   1.353       .  A
N1943      N1944   1.317       .  A
N1943      N2248   1.314       .  A
N1943     Mn1950   2.196       .  S
N1944      C1953   1.353       .  A
N1945      N2246   1.314   1_554  A
N1945      N1946   1.318       .  A
N1945     Mn1949   2.190       .  S
N1946      C2256   1.352   1_554  A
N1947      N2244   1.314       .  A
N1947      N1948   1.317       .  A
N1947     Mn1950   2.191       .  S
N1948      C1952   1.352       .  A
Mn1949    Cl2254   2.538   1_554  S
Mn1950    Cl1951   2.546       .  S
Cl1951    Mn2252   2.543       .  S
C1952      N2245   1.353       .  A
C1952      C1969   1.477       .  S
C1953      N2249   1.352       .  A
C1953      C2000   1.477       .  S
C1954      C2258   1.404   1_554  A
C1954      C1959   1.404       .  A
C1954      H1961   1.084       .  S
C1955      C2257   1.405       .  A
C1955      C1956   1.414       .  A
C1956      C1957   1.407       .  A
C1956      N1963   1.432       .  S
C1957      C1958   1.406       .  A
C1957      H1962   1.084       .  S
C1958      C2262   1.413       .  A
C1959      C2261   1.414   1_554  A
C1959      N1960   1.432       .  S
N1960      H1964   1.046       .  S
N1960      H1965   1.046       .  S
N1963      H1966   1.046       .  S
N1963      H1967   1.045       .  S
C1968      C1969   1.405       .  A
C1968      C1973   1.400       .  A
C1968      H1975   1.084       .  S
C1969      C2273   1.410       .  A
C1970      C2272   1.412       .  A
C1970      C1971   1.403       .  A
C1970      N1977   1.433       .  S
C1971      C2275   1.406   1_554  A
C1971      H1976   1.084       .  S
C1972      C2274   1.404       .  A
C1972      C1973   1.411       .  A
C1973      N1974   1.433       .  S
N1974      H1978   1.046       .  S
N1974      H1979   1.046       .  S
N1977      H1980   1.046       .  S
N1977      H1981   1.045       .  S
C1982      C1983   1.402       .  A
C1982      C1987   1.402       .  A
C1982      H1989   1.084       .  S
C1983      C1984   1.412       .  A
C1984      C1985   1.399       .  A
C1984      N1991   1.433       .  S
C1985      C1986   1.402       .  A
C1985      H1990   1.084       .  S
C1986      C1987   1.412       .  A
C1987      N1988   1.431       .  S
N1988      H2295   1.045       .  S
N1988      H1993   1.046       .  S
N1991      H1994   1.045       .  S
N1991      H1995   1.046       .  S
H1992      N2291   1.045       .  S
C1996      C2300   1.404   1_554  A
C1996      C2304   1.403       .  A
C1996      H2003   1.084       .  S
C1997      C2299   1.405       .  A
C1997      C1998   1.409       .  A
C1998      C1999   1.396       .  A
C1998      N2005   1.431       .  S
C1999      C2000   1.402       .  A
C1999      H2004   1.084       .  S
C2000      C2001   1.412       .  A
C2001      C2299   1.402       .  A
C2001      N2305   1.433       .  S
N2002      C2304   1.432       .  S
N2002      H2006   1.046       .  S
N2002      H2007   1.046       .  S
N2005      H2008   1.045       .  S
N2005      H2009   1.046       .  S
C2010      C2011   1.405   1_565  A
C2010      C2015   1.400       .  A
C2010      H2017   1.084       .  S
C2011      C2012   1.419       .  A
C2012      C2013   1.399       .  A
C2012      N2019   1.432       .  S
C2013      C2014   1.404       .  A
C2013      H2018   1.084       .  S
C2014      C2015   1.412   1_545  A
C2015      N2016   1.433       .  S
N2016      H2020   1.046       .  S
N2016      H2021   1.045       .  S
C2024      C2025   1.402   1_565  A
C2024      H2031   1.084       .  S
C2025      C2026   1.414       .  A
C2026      N2033   1.433       .  S
C2027      C2028   1.406       .  A
C2027      H2032   1.084       .  S
C2028      C2029   1.414       .  A
C2029      N2030   1.432       .  S
N2030      H2034   1.046       .  S
N2030      H2035   1.045       .  S
N2033      H2036   1.046       .  S
N2033      H2037   1.045       .  S
C2038      C2043   1.402       .  A
C2038      H2045   1.084       .  S
C2039      C2040   1.411       .  A
C2040      C2041   1.399       .  A
C2040      N2047   1.433       .  S
C2041      C2042   1.404       .  A
C2041      H2046   1.084       .  S
C2043      N2044   1.432       .  S
N2044      H2048   1.046       .  S
N2044      H2049   1.046       .  S
N2047      H2050   1.045       .  S
N2047      H2051   1.046       .  S
C2052      C2053   1.404   1_565  A
C2052      C2057   1.399       .  A
C2052      H2059   1.084       .  S
C2054      C2055   1.400       .  A
C2054      N2061   1.433       .  S
C2055      C2056   1.403       .  A
C2055      H2060   1.084       .  S
C2057      N2058   1.433       .  S
N2058      H2062   1.046       .  S
N2058      H2063   1.046       .  S
N2061      H2064   1.046       .  S
N2061      H2065   1.046       .  S
C2066      C2071   1.407       .  A
C2066      H2073   1.083       .  S
C2067      C2068   1.411       .  A
C2068      C2069   1.402       .  A
C2068      N2075   1.431       .  S
C2069      H2074   1.084       .  S
C2070      C2071   1.414       .  A
C2071      N2072   1.438       .  S
N2072      H2076   1.045       .  S
N2072      H2077   1.046       .  S
N2075      H2078   1.046       .  S
N2075      H2079   1.045       .  S
C2080      C2085   1.403       .  A
C2080      H2087   1.084       .  S
C2081      C2082   1.415       .  A
C2082      C2083   1.401       .  A
C2082      N2089   1.438       .  S
C2083      C2084   1.404       .  A
C2083      H2088   1.083       .  S
C2085      N2086   1.433       .  S
N2086      H2090   1.046       .  S
N2086      H2091   1.045       .  S
N2089      H2092   1.045       .  S
N2089      H2093   1.046       .  S
C2094      C2099   1.406       .  A
C2094      H2101   1.084       .  S
C2095      C2096   1.412       .  A
C2096      C2097   1.401       .  A
C2096      N2103   1.433       .  S
C2097      H2102   1.084       .  S
C2098      C2099   1.413       .  A
C2099      N2100   1.432       .  S
N2100      H2104   1.046       .  S
N2100      H2105   1.046       .  S
N2103      H2106   1.046       .  S
N2103      H2107   1.046       .  S
C2108      C2113   1.401       .  A
C2108      H2115   1.083       .  S
C2109      C2110   1.418       .  A
C2110      C2111   1.399       .  A
C2110      N2117   1.432       .  S
C2111      C2112   1.405       .  A
C2111      H2116   1.084       .  S
C2113      N2114   1.432       .  S
N2114      H2118   1.046       .  S
N2114      H2119   1.046       .  S
N2117      H2120   1.046       .  S
N2117      H2121   1.044       .  S
N2122      N2123   1.320       .  A
N2122     Mn2151   2.200       .  S
N2124      N2125   1.320       .  A
N2124     Mn2140   2.193       .  S
N2126      N2127   1.319       .  A
N2126     Mn2151   2.198       .  S
N2127      C2131   1.354   1_565  A
N2128      N2129   1.319       .  A
N2128     Mn2140   2.199       .  S
N2129      C2130   1.354       .  A
C2130      C2342   1.478       .  S
C2131      C2328   1.484       .  S
N2132      N2133   1.319       .  A
N2132     Mn2162   2.198       .  S
N2133      C2141   1.353       .  A
N2134      N2135   1.319       .  A
N2134     Mn2140   2.195       .  S
N2135      C2142   1.353       .  A
N2136      N2137   1.320       .  A
N2136     Mn2162   2.203       .  S
N2138      N2139   1.321       .  A
N2138     Mn2140   2.204       .  S
Mn2140    Cl2164   2.544       .  S
C2141      C2373   1.484       .  S
C2142      C2412   1.485       .  S
N2143      N2144   1.320       .  A
N2143     Mn2151   2.197       .  S
N2145      N2146   1.321       .  A
N2145     Mn2163   2.209       .  S
N2147      N2148   1.320       .  A
N2147     Mn2151   2.200       .  S
N2148      C2153   1.354       .  A
N2149      N2150   1.318       .  A
N2149     Mn2163   2.192       .  S
N2150      C2152   1.352       .  A
C2152      C2384   1.475       .  S
C2153      C2401   1.482       .  S
N2154      N2155   1.318       .  A
N2154     Mn2162   2.192       .  S
N2155      C2165   1.353       .  A
N2156      N2157   1.321       .  A
N2156     Mn2163   2.210       .  S
N2157      C2166   1.355   1_565  A
N2158      N2159   1.320       .  A
N2158     Mn2162   2.202       .  S
N2160      N2161   1.319       .  A
N2160     Mn2163   2.194       .  S
C2165      C2359   1.477       .  S
C2166      C2317   1.488       .  S
N2167      N2168   1.322       .  A
N2167     Mn2196   2.210       .  S
N2169      N2170   1.318       .  A
N2169     Mn2185   2.191       .  S
N2171      N2172   1.319       .  A
N2171     Mn2196   2.198       .  S
N2172      C2176   1.353       .  A
N2173      N2174   1.319       .  A
N2173     Mn2185   2.193       .  S
N2174      C2175   1.354       .  A
C2175      C2415   1.481       .  S
C2176      C2398   1.489       .  S
N2177      N2178   1.318       .  A
N2177     Mn2207   2.199       .  S
N2178      C2186   1.354       .  A
N2179      N2180   1.318       .  A
N2179     Mn2185   2.184       .  S
N2181      N2182   1.318       .  A
N2181     Mn2207   2.191       .  S
N2182      C2187   1.351       .  A
N2183      N2184   1.316       .  A
N2183     Mn2185   2.187       .  S
C2186      C2286   1.480       .  S
C2187      C2300   1.485       .  S
N2188      N2189   1.321       .  A
N2188     Mn2196   2.211       .  S
N2190      N2191   1.320       .  A
N2190     Mn2208   2.204       .  S
N2191      C2198   1.355       .  A
N2192      N2193   1.316       .  A
N2192     Mn2196   2.190       .  S
N2194      N2195   1.321       .  A
N2194     Mn2208   2.200       .  S
N2195      C2197   1.353       .  A
C2197      C2258   1.492       .  S
C2198      C2275   1.483       .  S
N2199      N2200   1.321       .  A
N2199     Mn2207   2.208       .  S
N2200      C2210   1.355       .  A
N2201      N2202   1.317       .  A
N2201     Mn2208   2.194       .  S
N2202      C2211   1.352       .  A
N2203      N2204   1.321       .  A
N2203     Mn2207   2.198       .  S
N2205      N2206   1.321       .  A
N2205     Mn2208   2.206       .  S
Mn2207    Cl2209   2.545       .  S
C2210      C2370   1.486       .  S
C2211      C2387   1.474       .  S
N2212      N2213   1.323       .  A
N2212     Mn2241   2.211       .  S
N2213      C2220   1.357       .  A
N2214      N2215   1.319       .  A
N2214     Mn2230   2.197       .  S
N2216      N2217   1.318       .  A
N2216     Mn2241   2.196       .  S
N2217      C2221   1.353       .  A
N2218      N2219   1.320       .  A
N2218     Mn2230   2.207       .  S
C2220      C2261   1.492       .  S
C2221      C2289   1.481       .  S
N2222      N2223   1.317       .  A
N2222     Mn2252   2.189       .  S
N2223      C2231   1.352       .  A
N2224      N2225   1.321       .  A
N2224     Mn2230   2.202       .  S
N2225      C2232   1.355   1_565  A
N2226      N2227   1.317       .  A
N2226     Mn2252   2.187       .  S
N2228      N2229   1.320       .  A
N2228     Mn2230   2.205       .  S
C2231      C2345   1.478       .  S
C2232      C2356   1.482       .  S
N2233      N2234   1.321       .  A
N2233     Mn2241   2.208       .  S
N2235      N2236   1.319       .  A
N2235     Mn2253   2.201       .  S
N2237      N2238   1.318       .  A
N2237     Mn2241   2.196       .  S
N2238      C2243   1.354   1_565  A
N2239      N2240   1.319       .  A
N2239     Mn2253   2.194       .  S
N2240      C2242   1.353       .  A
C2242      C2331   1.477       .  S
C2243      C2314   1.489       .  S
N2244      N2245   1.318       .  A
N2244     Mn2252   2.192       .  S
N2246      N2247   1.321       .  A
N2246     Mn2253   2.204       .  S
N2247      C2256   1.356       .  A
N2248      N2249   1.319       .  A
N2248     Mn2252   2.185       .  S
N2250      N2251   1.318       .  A
N2250     Mn2253   2.197       .  S
N2251      C2255   1.354   1_556  A
Mn2253    Cl2254   2.545       .  S
C2255      C2272   1.482       .  S
C2256      C2303   1.485       .  S
C2257      C2262   1.404       .  A
C2257      H2264   1.083       .  S
C2258      C2259   1.415       .  A
C2259      C2260   1.408       .  A
C2259      N2266   1.432       .  S
C2260      C2261   1.406       .  A
C2260      H2265   1.084       .  S
C2262      N2263   1.432       .  S
N2263      H2267   1.046       .  S
N2263      H2268   1.046       .  S
N2266      H2269   1.046       .  S
N2266      H2270   1.046       .  S
C2271      C2272   1.404   1_556  A
C2271      C2276   1.400       .  A
C2271      H2278   1.084       .  S
C2273      C2274   1.398       .  A
C2273      N2280   1.433       .  S
C2274      H2279   1.084       .  S
C2275      C2276   1.411       .  A
C2276      N2277   1.432       .  S
N2277      H2281   1.046       .  S
N2277      H2282   1.046       .  S
N2280      H2283   1.046       .  S
N2280      H2284   1.046       .  S
C2285      C2286   1.403       .  A
C2285      C2290   1.398       .  A
C2285      H2292   1.084       .  S
C2286      C2287   1.412   1_556  A
C2287      C2288   1.403       .  A
C2287      N2294   1.433       .  S
C2288      C2289   1.405   1_554  A
C2288      H2293   1.084       .  S
C2289      C2290   1.412       .  A
C2290      N2291   1.432       .  S
N2291      H2296   1.046       .  S
N2294      H2297   1.046       .  S
N2294      H2298   1.045       .  S
C2299      H2306   1.084       .  S
C2300      C2301   1.414       .  A
C2301      C2302   1.402       .  A
C2301      N2308   1.432       .  S
C2302      C2303   1.403       .  A
C2302      H2307   1.084       .  S
C2303      C2304   1.414   1_556  A
N2305      H2309   1.046       .  S
N2305      H2310   1.046       .  S
N2308      H2311   1.045       .  S
N2308      H2312   1.045       .  S
C2313      C2314   1.406   1_565  A
C2313      C2318   1.401       .  A
C2313      H2320   1.083       .  S
C2314      C2315   1.419       .  A
C2315      C2316   1.402       .  A
C2315      N2322   1.432       .  S
C2316      C2317   1.406       .  A
C2316      H2321   1.084       .  S
C2317      C2318   1.411   1_545  A
C2318      N2319   1.432       .  S
N2319      H2323   1.046       .  S
N2319      H2324   1.045       .  S
C2327      C2328   1.405   1_565  A
C2327      H2334   1.084       .  S
C2328      C2329   1.412       .  A
C2329      N2336   1.433       .  S
C2330      C2331   1.405       .  A
C2330      H2335   1.084       .  S
C2331      C2332   1.411       .  A
C2332      N2333   1.433       .  S
N2333      H2337   1.046       .  S
N2333      H2338   1.046       .  S
N2336      H2339   1.046       .  S
N2336      H2340   1.046       .  S
C2341      C2346   1.402       .  A
C2341      H2348   1.084       .  S
C2342      C2343   1.410       .  A
C2343      C2344   1.399       .  A
C2343      N2350   1.432       .  S
C2344      C2345   1.404       .  A
C2344      H2349   1.084       .  S
C2346      N2347   1.432       .  S
N2347      H2351   1.046       .  S
N2347      H2352   1.045       .  S
N2350      H2353   1.045       .  S
N2350      H2354   1.046       .  S
C2355      C2356   1.404   1_565  A
C2355      C2360   1.403       .  A
C2355      H2362   1.084       .  S
C2357      C2358   1.399       .  A
C2357      N2364   1.433       .  S
C2358      C2359   1.403       .  A
C2358      H2363   1.084       .  S
C2360      N2361   1.432       .  S
N2361      H2365   1.045       .  S
N2361      H2366   1.046       .  S
N2364      H2367   1.046       .  S
N2364      H2368   1.046       .  S
C2369      C2374   1.402       .  A
C2369      H2376   1.084       .  S
C2370      C2371   1.411       .  A
C2371      C2372   1.404       .  A
C2371      N2378   1.431       .  S
C2372      H2377   1.084       .  S
C2373      C2374   1.412       .  A
C2374      N2375   1.432       .  S
N2375      H2379   1.045       .  S
N2375      H2380   1.046       .  S
N2378      H2381   1.045       .  S
N2378      H2382   1.046       .  S
C2383      C2388   1.404       .  A
C2383      H2390   1.084       .  S
C2384      C2385   1.410       .  A
C2385      C2386   1.398       .  A
C2385      N2392   1.433       .  S
C2386      C2387   1.403       .  A
C2386      H2391   1.084       .  S
C2388      N2389   1.432       .  S
N2389      H2393   1.046       .  S
N2389      H2394   1.046       .  S
N2392      H2395   1.045       .  S
N2392      H2396   1.046       .  S
C2397      C2402   1.402       .  A
C2397      H2404   1.084       .  S
C2398      C2399   1.414       .  A
C2399      C2400   1.404       .  A
C2399      N2406   1.432       .  S
C2400      H2405   1.084       .  S
C2401      C2402   1.411       .  A
C2402      N2403   1.432       .  S
N2403      H2407   1.046       .  S
N2403      H2408   1.046       .  S
N2406      H2409   1.046       .  S
N2406      H2410   1.046       .  S
C2411      C2416   1.408       .  A
C2411      H2418   1.083       .  S
C2412      C2413   1.418       .  A
C2413      C2414   1.399       .  A
C2413      N2420   1.431       .  S
C2414      C2415   1.403       .  A
C2414      H2419   1.084       .  S
C2416      N2417   1.438       .  S
N2417      H2421   1.046       .  S
N2417      H2422   1.045       .  S
N2420      H2423   1.044       .  S
N2420      H2424   1.046       .  S
