geometry optimzed in LAMMPS
_audit_creation_date              2020-11-30 
_audit_creation_method            'lammps2cif' 
_symmetry_space_group_name_H-M    'P1' 
_symmetry_Int_Tables_number       1 
_symmetry_cell_setting            triclinic 
loop_ 
_symmetry_equiv_pos_as_xyz 
  x,y,z 
_cell_length_a                    29.68952084 
_cell_length_b                    30.741324075162755 
_cell_length_c                    28.77375579580942 
_cell_angle_alpha                 89.93617448601378 
_cell_angle_beta                  90.60979149082566 
_cell_angle_gamma                 89.96717430408546 
loop_ 
_atom_site_label 
_atom_site_type_symbol 
_atom_site_fract_x 
_atom_site_fract_y 
_atom_site_fract_z 
_atom_site_charge 
In1        In  0.66151670  0.33857951  0.59932275     1.36900
C2          C  0.70509097  0.26282365  0.58286078     0.76400
O3          O  0.68860657  0.38707550  0.54758098    -0.62000
O4          O  0.71476318  0.38464547  0.61680366    -0.52900
C5          C  0.58480569  0.37823541  0.57049027     0.69100
O6          O  0.59695635  0.34201961  0.55320476    -0.47800
C7          C  0.65658931  0.34105678  0.69111510     0.73800
O8          O  0.66866433  0.26496093  0.60514698    -0.59700
O9          O  0.69184097  0.34871864  0.66866145    -0.49800
O10         O  0.71471343  0.29780431  0.56237491    -0.56100
C11         C  0.71346200  0.40432003  0.57843262     0.84000
O12         O  0.61023323  0.39127820  0.60265117    -0.58000
O13         O  0.62324928  0.32899043  0.66661203    -0.61300
In14       In  0.86700469  0.03556768  0.60485190     1.36900
C15         C  0.82868046  0.11510945  0.60334117     0.76400
O16         O  0.83104337  0.04230683  0.53663822    -0.62000
O17         O  0.80940433  0.99405934  0.58555683    -0.52900
C18         C  0.93714065  0.98632285  0.57637641     0.69100
O19         O  0.94113815  0.02677205  0.58482369    -0.47800
C20         C  0.86866561  0.02582669  0.69648331     0.73800
O21         O  0.86421568  0.10720582  0.58026797    -0.59700
O22         O  0.84131220  0.00579251  0.67022147    -0.49800
O23         O  0.81723569  0.08436281  0.62968062    -0.56100
C24         C  0.80189646  0.01446625  0.54802126     0.84000
O25         O  0.89753679  0.97235954  0.58088257    -0.58000
O26         O  0.89758223  0.04856633  0.67540648    -0.61300
In27       In  0.67040742  0.39383184  0.97650018     1.36900
C28         C  0.70749254  0.47222668  0.99271473     0.76400
O29         O  0.70046590  0.34724680  0.02800532    -0.62000
O30         O  0.73145617  0.35608851  0.96207082    -0.52900
C31         C  0.59689747  0.35005600  0.00576564     0.69100
O32         O  0.60380970  0.38941333  0.01757580    -0.47800
C33         C  0.66247555  0.38513058  0.88522894     0.73800
O34         O  0.67561506  0.46649161  0.96400869    -0.59700
O35         O  0.69856503  0.37916225  0.90766358    -0.49800
O36         O  0.71452454  0.43995114  0.01887924    -0.56100
C37         C  0.72828281  0.33346609  0.99845074     0.84000
O38         O  0.62652620  0.33511414  0.97948247    -0.58000
O39         O  0.63013662  0.39920132  0.90923855    -0.61300
In40       In  0.81575538  0.08070057  0.97408929     1.36900
C41         C  0.76026112  0.01659539  0.00016429     0.76400
O42         O  0.78220083  0.13001735  0.01832515    -0.62000
O43         O  0.78333691  0.13901400  0.94448722    -0.52900
C44         C  0.88659834  0.12484882  0.00779695     0.69100
O45         O  0.86715892  0.09588842  0.03205129    -0.47800
C46         C  0.83695256  0.05172066  0.89051013     0.73800
O47         O  0.80271753  0.01342271  0.00495358    -0.59700
O48         O  0.80083009  0.07176759  0.89875531    -0.49800
O49         O  0.74708016  0.05332096  0.98628180    -0.56100
C50         C  0.77536540  0.15499807  0.98405465     0.84000
O51         O  0.87349252  0.12607395  0.96607524    -0.58000
O52         O  0.86232565  0.04548054  0.92546009    -0.61300
In53       In  0.32543854  0.15738017  0.46224358     1.36900
C54         C  0.26702468  0.22076452  0.48576910     0.76400
O55         O  0.37086021  0.19002298  0.40982069    -0.62000
O56         O  0.30879151  0.16230696  0.38693327    -0.52900
C57         C  0.39625227  0.11613855  0.50042407     0.69100
O58         O  0.37484757  0.14486880  0.52308549    -0.47800
C59         C  0.28553907  0.08213945  0.47186255     0.73800
O60         O  0.30937653  0.22661324  0.48732298    -0.59700
O61         O  0.29497964  0.09794662  0.43259621    -0.49800
O62         O  0.25584324  0.18225190  0.47658394    -0.56100
C63         C  0.34463841  0.18159071  0.37605089     0.84000
O64         O  0.38588316  0.11482206  0.45794570    -0.58000
O65         O  0.29268691  0.10692979  0.50613010    -0.61300
In66       In  0.07496962  0.42324527  0.46122463     1.36900
C67         C  0.13048697  0.35607987  0.47318962     0.76400
O68         O  0.03846906  0.38158318  0.40946730    -0.62000
O69         O  0.08097755  0.43279861  0.38460082    -0.52900
C70         C  0.00904262  0.47795321  0.48428280     0.69100
O71         O  0.01172260  0.43960907  0.50114228    -0.47800
C72         C  0.13175990  0.45975431  0.51777548     0.73800
O73         O  0.08998157  0.35494639  0.48794976    -0.59700
O74         O  0.12881175  0.47099231  0.47521200    -0.49800
O75         O  0.14057554  0.39016619  0.45075687    -0.56100
C76         C  0.05601251  0.40046295  0.37478996     0.84000
O77         O  0.03773974  0.48627501  0.45332120    -0.58000
O78         O  0.10265094  0.43289052  0.53205271    -0.61300
In79       In  0.37254599  0.19453539  0.08736599     1.36900
C80         C  0.32876703  0.11778443  0.08588727     0.76400
O81         O  0.40237414  0.17722212  0.15787894    -0.62000
O82         O  0.34634741  0.22026026  0.15380913    -0.52900
C83         C  0.44588370  0.23952846  0.06026376     0.69100
O84         O  0.44258993  0.19870126  0.05359836    -0.47800
C85         C  0.31099777  0.22718768  0.03195698     0.73800
O86         O  0.36939971  0.12079280  0.07216418    -0.59700
O87         O  0.32294472  0.24537550  0.06941014    -0.49800
O88         O  0.31278966  0.15301040  0.10073548    -0.56100
C89         C  0.37329217  0.19927677  0.17951494     0.84000
O90         O  0.41246323  0.25572633  0.08047567    -0.58000
O91         O  0.33509409  0.19554751  0.01924033    -0.61300
In92       In  0.07769955  0.31021962  0.10200149     1.36900
C93         C  0.13388867  0.37651396  0.09098508     0.76400
O94         O  0.04222473  0.35456057  0.15118213    -0.62000
O95         O  0.08018583  0.30105861  0.17911910    -0.52900
C96         C  0.01007380  0.25784290  0.07716687     0.69100
O97         O  0.01438585  0.29576159  0.05969920    -0.47800
C98         C  0.13627221  0.27061411  0.05071664     0.73800
O99         O  0.09398520  0.37734170  0.07376836    -0.59700
O100        O  0.13131049  0.26098185  0.09340705    -0.49800
O101        O  0.14310705  0.34307543  0.11509571    -0.56100
C102        C  0.05707587  0.33496565  0.18704312     0.84000
O103        O  0.03838384  0.24881714  0.10886639    -0.58000
O104        O  0.10825186  0.29741890  0.03356229    -0.61300
C105        C  0.25557540  0.07943922  0.10072506    -0.14500
C106        C  0.30027454  0.07754685  0.08456371     0.07600
C107        C  0.24752553  0.43359451  0.08642415    -0.14500
C108        C  0.21443465  0.40125970  0.09057919    -0.14500
C109        C  0.16844182  0.41090223  0.08337407     0.07600
C110        C  0.22734433  0.04284239  0.09943316    -0.14500
H111        H  0.24219526  0.10946405  0.11458332     0.11600
H112        H  0.28234962  0.42536124  0.09380940     0.11600
H113        H  0.22484141  0.36867138  0.10016024     0.11600
H114        H  0.19353028  0.04559483  0.11282737     0.11600
C115        C  0.23445822  0.20321754  0.01597171    -0.14500
C116        C  0.26672348  0.23637262  0.01184662     0.07600
C117        C  0.25258814  0.27967307  0.00775324    -0.14500
C118        C  0.20727597  0.29010698  0.01361455    -0.14500
C119        C  0.17642939  0.25747681  0.02553689     0.07600
C120        C  0.18955774  0.21382741  0.02434767    -0.14500
H121        H  0.24495319  0.16967324  0.02024563     0.11600
H122        H  0.27710362  0.30566115  0.00564838     0.11600
H123        H  0.19762085  0.32404599  0.01506921     0.11600
H124        H  0.16618451  0.18843341  0.03400382     0.11600
C125        C  0.04416600  0.33978906  0.31793057    -0.14500
C126        C  0.05009377  0.38445813  0.32653868     0.07600
C127        C  0.05461883  0.41287287  0.28861862    -0.14500
C128        C  0.05402640  0.39685254  0.24302650    -0.14500
C129        C  0.05054743  0.35196400  0.23459151     0.07600
C130        C  0.04523238  0.32359025  0.27239797    -0.14500
H131        H  0.04107878  0.31712210  0.34658161     0.11600
H132        H  0.05942711  0.44739719  0.29430973     0.11600
H133        H  0.05867619  0.41931989  0.21443907     0.11600
H134        H  0.04271458  0.28883757  0.26673416     0.11600
C135        C  0.39747316  0.18398275  0.30860594    -0.14500
C136        C  0.35464290  0.19185480  0.32717855     0.07600
C137        C  0.31941606  0.20468069  0.29740597    -0.14500
C138        C  0.32646878  0.20884343  0.24976388    -0.14500
C139        C  0.36859048  0.19900941  0.23061628     0.07600
C140        C  0.40424234  0.18685896  0.26043500    -0.14500
H141        H  0.42493225  0.17343250  0.33097840     0.11600
H142        H  0.28607746  0.21061822  0.31095757     0.11600
H143        H  0.29830617  0.21801714  0.22760547     0.11600
H144        H  0.43697936  0.17905897  0.24646940     0.11600
C145        C  0.18627518  0.24548595  0.49301742    -0.14500
C146        C  0.23250358  0.25595541  0.49025811     0.07600
C147        C  0.24443255  0.29989245  0.48546762    -0.14500
C148        C  0.21110074  0.33211645  0.48085728    -0.14500
C149        C  0.16490813  0.32148253  0.48187679     0.07600
C150        C  0.15288585  0.27791480  0.48940741    -0.14500
H151        H  0.17583053  0.21191811  0.49652534     0.11600
H152        H  0.27951407  0.30914175  0.48284926     0.11600
H153        H  0.22155029  0.36547343  0.47553022     0.11600
H154        H  0.11773407  0.26866994  0.49050745     0.11600
C155        C  0.20232910  0.43744834  0.55472266    -0.14500
C156        C  0.17125291  0.47087431  0.54571633     0.07600
C157        C  0.23816245  0.97933209  0.52391044    -0.14500
C158        C  0.25386429  0.02200308  0.51995030    -0.14500
C159        C  0.26955685  0.03736512  0.47710364     0.07600
C160        C  0.24785724  0.44735816  0.56026686    -0.14500
H161        H  0.19254343  0.40375130  0.55063890     0.11600
H162        H  0.22418600  0.96857936  0.55653097     0.11600
H163        H  0.25265926  0.04325195  0.54994467     0.11600
H164        H  0.27237449  0.42128603  0.55941638     0.11600
C165        C  0.92962391  0.19451535  0.99881696    -0.14500
C166        C  0.91919150  0.15779354  0.02616834     0.07600
C167        C  0.93735705  0.15540367  0.07135310    -0.14500
C168        C  0.96609885  0.18836992  0.08820952    -0.14500
C169        C  0.97646481  0.22502411  0.06073116     0.07600
C170        C  0.95754218  0.22777740  0.01596244    -0.14500
H171        H  0.91567007  0.19788872  0.96408787     0.11600
H172        H  0.92955464  0.12798735  0.09354581     0.11600
H173        H  0.98035266  0.18515396  0.12282399     0.11600
H174        H  0.96518232  0.25520015  0.99371789     0.11600
C175        C  0.52040121  0.33960931  0.04257746    -0.14500
C176        C  0.55825659  0.32221180  0.02058863     0.07600
C177        C  0.55894837  0.27699341  0.01159779    -0.14500
C178        C  0.52286006  0.24995543  0.02427900    -0.14500
C179        C  0.48490222  0.26737541  0.04618580     0.07600
C180        C  0.48419723  0.31260953  0.05501757    -0.14500
H181        H  0.51858559  0.37414910  0.04982934     0.11600
H182        H  0.58761343  0.26236119  0.99472346     0.11600
H183        H  0.52467880  0.21544567  0.01691911     0.11600
H184        H  0.45547543  0.32728609  0.07177501     0.11600
C185        C  0.68148665  0.98788482  0.01025716    -0.14500
C186        C  0.72807171  0.97988161  0.00585772     0.07600
C187        C  0.80901467  0.54641428  0.01297803    -0.14500
C188        C  0.77659524  0.51361254  0.01989678    -0.14500
C189        C  0.73762213  0.51114567  0.99154782     0.07600
C190        C  0.64993272  0.95388852  0.00630556    -0.14500
H191        H  0.66933585  0.02077985  0.01495990     0.11600
H192        H  0.83849926  0.54753003  0.03537085     0.11600
H193        H  0.78268623  0.48938602  0.04660554     0.11600
H194        H  0.61432988  0.96122106  0.00824901     0.11600
C195        C  0.77182719  0.27479064  0.96209032    -0.14500
C196        C  0.74877841  0.29019010  0.00108573     0.07600
C197        C  0.73580909  0.26076431  0.03585479    -0.14500
C198        C  0.74398226  0.21628849  0.03045796    -0.14500
C199        C  0.76425883  0.20093875  0.98985506     0.07600
C200        C  0.77892662  0.23053454  0.95623157    -0.14500
H201        H  0.78190348  0.29667156  0.93453057     0.11600
H202        H  0.71734245  0.27180106  0.06583040     0.11600
H203        H  0.73345964  0.19384240  0.05731646     0.11600
H204        H  0.79607247  0.21947093  0.92541292     0.11600
C205        C  0.96708970  0.91435280  0.54648812    -0.14500
C206        C  0.97531016  0.95679566  0.56344101     0.07600
C207        C  0.02028050  0.96981593  0.56959815    -0.14500
C208        C  0.96605833  0.54872703  0.47402361    -0.14500
C209        C  0.97706263  0.51185548  0.50122781     0.07600
C210        C  0.96048155  0.50965728  0.54660072    -0.12900
H211        H  0.93285806  0.90309109  0.54142333     0.11600
H212        H  0.02797101  0.00198938  0.58282406     0.11600
H213        H  0.97868454  0.55159849  0.43899671     0.11600
H214        H  0.96878630  0.48218976  0.56872271     0.11600
C215        C  0.82405467  0.01126297  0.76775899    -0.14500
C216        C  0.86437558  0.02560373  0.74767157     0.07600
C217        C  0.89769779  0.04434849  0.77636984    -0.14500
C218        C  0.89005465  0.05010027  0.82397036    -0.14500
C219        C  0.84856799  0.03825118  0.84312882     0.07600
C220        C  0.81595897  0.01816584  0.81492059    -0.14500
H221        H  0.79763975  0.99700811  0.74648895     0.11600
H222        H  0.92894618  0.05588227  0.76174313     0.11600
H223        H  0.91537637  0.06612738  0.84517985     0.11600
H224        H  0.78368523  0.00902596  0.82911817     0.11600
C225        C  0.51159038  0.38940098  0.52516127    -0.14500
C226        C  0.54563527  0.40540441  0.55470943     0.07600
C227        C  0.54281472  0.44918150  0.56933104    -0.14500
C228        C  0.44207749  0.08445426  0.56771025    -0.14500
C229        C  0.42698485  0.08262734  0.52129223     0.07600
C230        C  0.47575155  0.41651697  0.51074625    -0.14500
H231        H  0.51258714  0.35597207  0.51331169     0.11600
H232        H  0.56848047  0.46277936  0.59201431     0.11600
H233        H  0.43419974  0.11241550  0.58901731     0.11600
H234        H  0.44996114  0.40309874  0.48810534     0.11600
C235        C  0.61598258  0.36100553  0.76435333    -0.14500
C236        C  0.65551759  0.34821601  0.74162756     0.07600
C237        C  0.69639261  0.34767750  0.76637189    -0.14500
C238        C  0.69819181  0.36030217  0.81266715    -0.14500
C239        C  0.65916563  0.37408848  0.83545753     0.07600
C240        C  0.61782872  0.37405961  0.81112392    -0.14500
H241        H  0.58419503  0.36228523  0.74562985     0.11600
H242        H  0.72736515  0.33814092  0.74957895     0.11600
H243        H  0.73044450  0.35944129  0.83058173     0.11600
H244        H  0.58718876  0.38400488  0.82817119     0.11600
C245        C  0.77645685  0.22238612  0.55929875    -0.14500
C246        C  0.73612030  0.22420508  0.58490020     0.07600
C247        C  0.72821083  0.19096467  0.61731603    -0.14500
C248        C  0.75923865  0.15706144  0.62402373    -0.14500
C249        C  0.79932535  0.15470206  0.59829824     0.07600
C250        C  0.80751590  0.18785054  0.56562759    -0.14500
H251        H  0.78414265  0.24783344  0.53457449     0.11600
H252        H  0.69820348  0.19153438  0.63834306     0.11600
H253        H  0.75130872  0.13210606  0.64924367     0.11600
H254        H  0.83762594  0.18692975  0.54481373     0.11600
C255        C  0.68104476  0.03113353  0.53814200    -0.14500
C256        C  0.73554313  0.44664975  0.57354659     0.07600
C257        C  0.76094688  0.46197929  0.61144264    -0.14500
C258        C  0.77280874  0.50537561  0.61427080    -0.14500
C259        C  0.75844538  0.01078123  0.52459726     0.07600
C260        C  0.72634193  0.04256946  0.53549993    -0.14500
H261        H  0.65752521  0.05373521  0.55353563     0.11600
H262        H  0.76972433  0.44087700  0.64037220     0.11600
H263        H  0.79152045  0.51640991  0.64452977     0.11600
H264        H  0.73686116  0.07383978  0.54908725     0.11600
In265      In  0.57535132  0.92438404  0.60363335     1.36900
C266        C  0.62790237  0.85558464  0.58781706     0.76400
O267        O  0.60610949  0.93944914  0.53556334    -0.62000
O268        O  0.62338492  0.97829763  0.59536604    -0.52900
C269        C  0.50818846  0.97789113  0.57952884     0.69100
O270        O  0.51140434  0.93970498  0.56252218    -0.47800
C271        C  0.56561780  0.90178949  0.69182010     0.73800
O272        O  0.58656831  0.85571354  0.57479560    -0.59700
O273        O  0.59477478  0.92903603  0.67851017    -0.49800
O274        O  0.64043820  0.88964100  0.60874870    -0.56100
C275        C  0.62994983  0.96962940  0.55281151     0.84000
O276        O  0.53602701  0.98591589  0.61192580    -0.58000
O277        O  0.53859441  0.88881763  0.66028963    -0.61300
In278      In  0.81912675  0.65149566  0.59608558     1.36900
C279        C  0.75951431  0.71579539  0.57876068     0.76400
O280        O  0.78614385  0.60269280  0.54927187    -0.62000
O281        O  0.78114910  0.59615120  0.62313148    -0.52900
C282        C  0.89062581  0.61276830  0.55706258     0.69100
O283        O  0.86538625  0.63804382  0.53352354    -0.47800
C284        C  0.84730102  0.66890695  0.68211640     0.73800
O285        O  0.80140892  0.72029923  0.57174010    -0.59700
O286        O  0.82559307  0.63519819  0.67103608    -0.49800
O287        O  0.74860741  0.67824499  0.59200484    -0.56100
C288        C  0.77500677  0.57940805  0.58348435     0.84000
O289        O  0.88335584  0.61400783  0.59991489    -0.58000
O290        O  0.85332675  0.69550982  0.64911379    -0.61300
In291      In  0.58146773  0.80612957  0.96601791     1.36900
C292        C  0.63212354  0.87565161  0.98547232     0.76400
O293        O  0.61677228  0.79048836  0.03199999    -0.62000
O294        O  0.63251237  0.75388589  0.97054447    -0.52900
C295        C  0.51496603  0.75266536  0.99225054     0.69100
O296        O  0.51969282  0.79058876  0.00942762    -0.47800
C297        C  0.56891806  0.82998119  0.87807846     0.73800
O298        O  0.59102538  0.87386316  0.99811672    -0.59700
O299        O  0.59847542  0.80257236  0.89059181    -0.49800
O300        O  0.64504456  0.84337129  0.96210802    -0.56100
C301        C  0.64157055  0.76250944  0.01278066     0.84000
O302        O  0.54137772  0.74448995  0.95923775    -0.58000
O303        O  0.54301592  0.84260855  0.91013371    -0.61300
In304      In  0.88216247  0.68836712  0.96696183     1.36900
C305        C  0.83506367  0.61451036  0.97130270     0.76400
O306        O  0.84491381  0.69055324  0.03379807    -0.62000
O307        O  0.82725564  0.73511466  0.97919436    -0.52900
C308        C  0.95300036  0.73380991  0.99906039     0.69100
O309        O  0.95085000  0.69270425  0.00392719    -0.47800
C310        C  0.89103162  0.68858384  0.87555451     0.73800
O311        O  0.87344495  0.61801578  0.99133904    -0.59700
O312        O  0.86873771  0.71706679  0.89698291    -0.49800
O313        O  0.82397067  0.64693163  0.94678276    -0.56100
C314        C  0.81782798  0.71880036  0.01826446     0.84000
O315        O  0.91974881  0.75009671  0.97784420    -0.58000
O316        O  0.91184447  0.66160145  0.90131133    -0.61300
In317      In  0.36307270  0.53593520  0.48141972     1.36900
C318        C  0.32028038  0.61319887  0.48977220     0.76400
O319        O  0.39378089  0.55316466  0.41205500    -0.62000
O320        O  0.33482526  0.51396885  0.41345210    -0.52900
C321        C  0.43516090  0.48892733  0.50929465     0.69100
O322        O  0.43243836  0.52965372  0.51675153    -0.47800
C323        C  0.30438917  0.50124900  0.53702288     0.73800
O324        O  0.36226594  0.60941685  0.49883977    -0.59700
O325        O  0.31397682  0.48472345  0.49815785    -0.49800
O326        O  0.30242977  0.57869871  0.47485288    -0.56100
C327        C  0.36359353  0.53333015  0.38904026     0.84000
O328        O  0.40191193  0.47362305  0.48729709    -0.58000
O329        O  0.32896539  0.53252521  0.55015921    -0.61300
In330      In  0.16042610  0.84217944  0.48152134     1.36900
C331        C  0.20747254  0.76889968  0.50314276     0.76400
O332        O  0.16811469  0.81677166  0.40878053    -0.62000
O333        O  0.12617790  0.87145901  0.41803840    -0.52900
C334        C  0.08689476  0.87227232  0.52565730     0.69100
O335        O  0.08418526  0.84193681  0.49597715    -0.47800
C336        C  0.21448738  0.91009144  0.48569975     0.73800
O337        O  0.16519385  0.76870456  0.49648509    -0.59700
O338        O  0.20625095  0.88967170  0.44875508    -0.49800
O339        O  0.22382751  0.80658636  0.50435618    -0.56100
C340        C  0.14496338  0.84629307  0.38976083     0.84000
O341        O  0.12675391  0.88100587  0.53763736    -0.58000
O342        O  0.19778968  0.89364379  0.52184225    -0.61300
In343      In  0.32572477  0.57692782  0.10407700     1.36900
C344        C  0.26893528  0.51251460  0.08039943     0.76400
O345        O  0.36879014  0.54424968  0.15926527    -0.62000
O346        O  0.30676532  0.57385079  0.17833569    -0.52900
C347        C  0.39712362  0.61845397  0.06839056     0.69100
O348        O  0.37603937  0.58961845  0.04513811    -0.47800
C349        C  0.28583976  0.65099552  0.09112219     0.73800
O350        O  0.31140505  0.50753319  0.07924329    -0.59700
O351        O  0.29677215  0.63707712  0.13098990    -0.49800
O352        O  0.25670630  0.55076818  0.08928039    -0.56100
C353        C  0.34162735  0.55362794  0.19137482     0.84000
O354        O  0.38582196  0.62018756  0.11035562    -0.58000
O355        O  0.29039073  0.62448672  0.05798217    -0.61300
In356      In  0.16973817  0.88803564  0.10293004     1.36900
C357        C  0.21405316  0.96307836  0.08451782     0.76400
O358        O  0.13381964  0.90672656  0.16964411    -0.62000
O359        O  0.19242446  0.86723884  0.17256776    -0.52900
C360        C  0.09585551  0.84656082  0.07000650     0.69100
O361        O  0.11020388  0.88116051  0.05102631    -0.47800
C362        C  0.22318675  0.82440287  0.08126599     0.73800
O363        O  0.17414827  0.96248178  0.09962459    -0.59700
O364        O  0.22505155  0.84421141  0.11957203    -0.49800
O365        O  0.22864997  0.92599129  0.07423547    -0.56100
C366        C  0.16042695  0.88405526  0.19442047     0.84000
O367        O  0.11689670  0.83644437  0.10645908    -0.58000
O368        O  0.19679409  0.84053475  0.05099900    -0.61300
C369        C  0.18955703  0.48600786  0.06712266    -0.14500
C370        C  0.23542082  0.47661753  0.07576827     0.07600
C371        C  0.31584704  0.03778142  0.06680661    -0.14500
C372        C  0.28748038  0.00096408  0.06560335    -0.14500
C373        C  0.24278767  0.00303528  0.08189418     0.07600
C374        C  0.15649941  0.45340259  0.07030688    -0.14500
H375        H  0.17908337  0.51893943  0.05912701     0.11600
H376        H  0.34987776  0.03510011  0.05400442     0.11600
H377        H  0.30074515  0.97064014  0.05236149     0.11600
H378        H  0.12149145  0.46181756  0.06436329     0.11600
C379        C  0.24517612  0.70898264  0.04659482    -0.14500
C380        C  0.27261604  0.69610771  0.08410132     0.07600
C381        C  0.28952905  0.72718074  0.11516392    -0.14500
C382        C  0.27689582  0.77029453  0.11078341    -0.14500
C383        C  0.24639590  0.78291738  0.07582440     0.07600
C384        C  0.23164237  0.75241495  0.04269753    -0.14500
H385        H  0.23264442  0.68526289  0.02180900     0.11600
H386        H  0.31201357  0.71800744  0.14338131     0.11600
H387        H  0.28890655  0.79330127  0.13659708     0.11600
H388        H  0.20770338  0.76151951  0.01578923     0.11600
C389        C  0.17546136  0.83113335  0.31159708    -0.14500
C390        C  0.14455765  0.85366315  0.33907145     0.07600
C391        C  0.11797930  0.88658938  0.31857271    -0.14500
C392        C  0.12263561  0.89690261  0.27131550    -0.14500
C393        C  0.15453087  0.87494614  0.24435191     0.07600
C394        C  0.18060225  0.84183303  0.26497449    -0.14500
H395        H  0.19681367  0.80603129  0.32650222     0.11600
H396        H  0.09425627  0.90481488  0.33924978     0.11600
H397        H  0.10191378  0.92231273  0.25609881     0.11600
H398        H  0.20513659  0.82392637  0.24497036     0.11600
C399        C  0.39735693  0.54420867  0.30990262    -0.14500
C400        C  0.36014991  0.53419225  0.33776328     0.07600
C401        C  0.31802933  0.52717201  0.31641706    -0.14500
C402        C  0.31259497  0.53222765  0.26851254    -0.14500
C403        C  0.34942758  0.54305039  0.24072767     0.07600
C404        C  0.39214236  0.54797070  0.26149897    -0.14500
H405        H  0.43016518  0.54972195  0.32559130     0.11600
H406        H  0.28875462  0.51958104  0.33704183     0.11600
H407        H  0.27935413  0.52841736  0.25318807     0.11600
H408        H  0.42087429  0.55679859  0.24064500     0.11600
C409        C  0.24495178  0.65025084  0.49612800    -0.14500
C410        C  0.29240944  0.65343623  0.49667856     0.07600
C411        C  0.31157541  0.69481895  0.50312365    -0.14500
C412        C  0.28395708  0.73203383  0.50716693    -0.14500
C413        C  0.23644388  0.72883594  0.50534807     0.07600
C414        C  0.21746341  0.68725619  0.50046955    -0.14500
H415        H  0.22882846  0.61892871  0.49166180     0.11600
H416        H  0.34781516  0.69857149  0.50385430     0.11600
H417        H  0.29988939  0.76355539  0.51047993     0.11600
H418        H  0.18124274  0.68340677  0.49859444     0.11600
C419        C  0.25645947  0.96651724  0.44312695    -0.14500
C420        C  0.23846781  0.95169392  0.48512020     0.07600
C421        C  0.18432484  0.51427374  0.55081786    -0.14500
C422        C  0.22951897  0.52418670  0.55921911    -0.14500
C423        C  0.26182978  0.49079901  0.55902429     0.07600
C424        C  0.27174446  0.00900961  0.43911374    -0.14500
H425        H  0.25715303  0.94575348  0.41273310     0.11600
H426        H  0.16069355  0.54032576  0.54353310     0.11600
H427        H  0.23988198  0.55790832  0.55762133     0.11600
H428        H  0.28473578  0.01982517  0.40604245     0.11600
C429        C  0.99331850  0.80568777  0.00193704    -0.14500
C430        C  0.99052941  0.76189210  0.01649716     0.07600
C431        C  0.02277431  0.74643711  0.04844789    -0.14500
C432        C  0.05647337  0.77428272  0.06585603    -0.14500
C433        C  0.05925099  0.81809062  0.05123572     0.07600
C434        C  0.02751073  0.83329649  0.01869331    -0.14500
H435        H  0.96899416  0.81868741  0.97730044     0.11600
H436        H  0.02156769  0.71306595  0.06049094     0.11600
H437        H  0.08070502  0.76136989  0.09063095     0.11600
H438        H  0.02876530  0.86668506  0.00664412     0.11600
C439        C  0.46744238  0.72156575  0.05635101    -0.14500
C440        C  0.48332342  0.71900230  0.01066217     0.07600
C441        C  0.47192004  0.68186601  0.98420105    -0.14500
C442        C  0.44468426  0.64861396  0.00269559    -0.14500
C443        C  0.42917496  0.65107634  0.04859638     0.07600
C444        C  0.44112180  0.68802070  0.07511371    -0.14500
H445        H  0.47606514  0.74922712  0.07797719     0.11600
H446        H  0.48396163  0.67861993  0.94898763     0.11600
H447        H  0.43572908  0.62104097  0.98108040     0.11600
H448        H  0.42932611  0.69149918  0.11038478     0.11600
C449        C  0.76377537  0.57543287  0.94992117    -0.14500
C450        C  0.80318762  0.57747609  0.97752161     0.07600
C451        C  0.74248020  0.93689522  0.99946641    -0.14500
C452        C  0.71101536  0.90319768  0.99449589    -0.14500
C453        C  0.66432222  0.91140071  0.99669592     0.07600
C454        C  0.73157571  0.54279523  0.95676334    -0.14500
H455        H  0.75779445  0.59912026  0.92266104     0.11600
H456        H  0.77792975  0.92967268  0.99542907     0.11600
H457        H  0.72328770  0.87073199  0.98748480     0.11600
H458        H  0.70246920  0.54163931  0.93383501     0.11600
C459        C  0.71469738  0.77907925  0.04776496    -0.14500
C460        C  0.68303851  0.74735155  0.03469517     0.07600
C461        C  0.69635421  0.70400724  0.02986884    -0.14500
C462        C  0.74188359  0.69332637  0.03315769    -0.14500
C463        C  0.77409176  0.72636309  0.03880874     0.07600
C464        C  0.76040404  0.76883939  0.04849797    -0.14500
H465        H  0.70478562  0.81282227  0.05093062     0.11600
H466        H  0.67229238  0.67942892  0.01914899     0.11600
H467        H  0.75221218  0.66051445  0.02466761     0.11600
H468        H  0.78498362  0.79469113  0.05189923     0.11600
C469        C  0.93411873  0.54341208  0.56455508    -0.14500
C470        C  0.92250522  0.58007732  0.53741022     0.07600
C471        C  0.93839401  0.58211803  0.49162619    -0.14500
C472        C  0.05593466  0.94140284  0.55927333    -0.14500
C473        C  0.04789607  0.89927536  0.54159692     0.07600
C474        C  0.00289030  0.88618717  0.53511337    -0.12900
H475        H  0.92192396  0.54026831  0.59973104     0.11600
H476        H  0.92966804  0.60952610  0.46961157     0.11600
H477        H  0.09011679  0.95299011  0.56398359     0.11600
H478        H  0.99537229  0.85432812  0.52100741     0.11600
C479        C  0.86993127  0.71689015  0.74915399    -0.14500
C480        C  0.86461892  0.67523851  0.72994958     0.07600
C481        C  0.87393274  0.63861005  0.75770098    -0.14500
C482        C  0.88650108  0.64335069  0.80432674    -0.14500
C483        C  0.88868243  0.68477870  0.82448563     0.07600
C484        C  0.88111820  0.72160469  0.79639485    -0.14500
H485        H  0.86303957  0.74556286  0.72839540     0.11600
H486        H  0.87052344  0.60614534  0.74353859     0.11600
H487        H  0.89158108  0.61449010  0.82536039     0.11600
H488        H  0.88229478  0.75388050  0.81138495     0.11600
C489        C  0.46169512  0.01043757  0.51479195    -0.14500
C490        C  0.47728237  0.01233426  0.56091777     0.07600
C491        C  0.46751602  0.04999081  0.58705723    -0.14500
C492        C  0.50744747  0.47635392  0.55445812    -0.14500
C493        C  0.47342169  0.46049976  0.52489509     0.07600
C494        C  0.43737903  0.04516146  0.49518098    -0.14500
H495        H  0.46928962  0.98245830  0.49337635     0.11600
H496        H  0.47957970  0.05276369  0.62256620     0.11600
H497        H  0.50667355  0.50980294  0.56627911     0.11600
H498        H  0.42578281  0.04215136  0.45953118     0.11600
C499        C  0.52537357  0.87003209  0.76071845    -0.14500
C500        C  0.56530744  0.88457591  0.73999074     0.07600
C501        C  0.60609385  0.88052579  0.76487311    -0.14500
C502        C  0.60706645  0.86169972  0.80920806    -0.14500
C503        C  0.56709804  0.84787943  0.83029737     0.07600
C504        C  0.52613997  0.85270895  0.80597291    -0.14500
H505        H  0.49357052  0.87258124  0.74215291     0.11600
H506        H  0.63742981  0.89097301  0.74955393     0.11600
H507        H  0.63899319  0.85865065  0.82744347     0.11600
H508        H  0.49492249  0.84236716  0.82165353     0.11600
C509        C  0.70723106  0.82855542  0.58198576    -0.14500
C510        C  0.66066963  0.81954442  0.57990395     0.07600
C511        C  0.64700248  0.77622887  0.57345263    -0.14500
C512        C  0.67921293  0.74259045  0.57146879    -0.14500
C513        C  0.72576133  0.75166255  0.57475524     0.07600
C514        C  0.73929877  0.79517913  0.57900140    -0.14500
H515        H  0.71897789  0.86161032  0.58669688     0.11600
H516        H  0.61152164  0.76818382  0.57189851     0.11600
H517        H  0.66768069  0.70930907  0.56836657     0.11600
H518        H  0.77469968  0.80328659  0.58203673     0.11600
C519        C  0.72508285  0.47495120  0.53655255    -0.14500
C520        C  0.66789101  0.98842467  0.52812250     0.07600
C521        C  0.69884774  0.95945835  0.50843586    -0.14500
C522        C  0.74444238  0.97026393  0.50785718    -0.14500
C523        C  0.76065880  0.53423738  0.57869074     0.07600
C524        C  0.73823441  0.51869851  0.53886498    -0.14500
H525        H  0.70516928  0.46383316  0.50720380     0.11600
H526        H  0.68920973  0.92620377  0.50093272     0.11600
H527        H  0.76897190  0.94530565  0.50002867     0.11600
H528        H  0.72954475  0.54057604  0.51059855     0.11600
loop_ 
_geom_bond_atom_site_label_1 
_geom_bond_atom_site_label_2 
_geom_bond_distance 
_geom_bond_site_symmetry_2 
_ccdc_geom_bond_type 
In1           O3   2.260       .  S
In1           O4   2.178       .  S
In1          O12   2.225       .  S
In1           O6   2.322       .  S
In1           O8   2.279       .  S
In1           O9   2.203       .  S
In1          O10   2.287       .  S
In1          O13   2.274       .  S
C2            O8   1.265       .  A
C2           O10   1.260       .  A
C2          C246   1.503       .  S
O3           C11   1.265       .  A
O4           C11   1.259       .  A
C5           O12   1.254       .  A
C5            O6   1.273       .  A
C5          C226   1.498       .  S
C7            O9   1.258       .  A
C7           O13   1.265       .  A
C7          C236   1.471       .  S
C11         C256   1.465       .  S
In14         O16   2.234       .  S
In14         O17   2.201   1_545  S
In14         O25   2.256   1_545  S
In14         O19   2.297       .  S
In14         O21   2.313       .  S
In14         O22   2.233       .  S
In14         O23   2.228       .  S
In14         O26   2.251       .  S
C15          O21   1.276       .  A
C15          O23   1.260       .  A
C15         C249   1.503       .  S
O16          C24   1.263       .  A
O17          C24   1.266   1_565  A
C18          O25   1.260       .  A
C18          O19   1.273   1_565  A
C18         C206   1.502       .  S
C20          O22   1.264       .  A
C20          O26   1.267       .  A
C20         C216   1.480       .  S
C24         C259   1.454       .  S
In27         O29   2.238   1_556  S
In27         O30   2.195       .  S
In27         O38   2.229       .  S
In27         O32   2.318   1_556  S
In27         O34   2.268       .  S
In27         O35   2.205       .  S
In27         O36   2.277   1_556  S
In27         O39   2.270       .  S
C28          O34   1.262       .  A
C28          O36   1.261   1_556  A
C28         C189   1.495       .  S
O29          C37   1.265   1_554  A
O30          C37   1.260       .  A
C31          O38   1.253   1_554  A
C31          O32   1.273       .  A
C31         C176   1.497       .  S
C33          O35   1.258       .  A
C33          O39   1.265       .  A
C33         C239   1.474       .  S
C37         C196   1.464   1_556  S
In40         O42   2.223   1_556  S
In40         O43   2.201       .  S
In40         O51   2.224       .  S
In40         O45   2.297   1_556  S
In40         O47   2.285   1_556  S
In40         O48   2.225       .  S
In40         O49   2.237       .  S
In40         O52   2.255       .  S
C41          O47   1.270       .  A
C41          O49   1.258   1_554  A
C41         C186   1.489   1_545  S
O42          C50   1.264   1_554  A
O43          C50   1.265       .  A
C44          O51   1.259   1_554  A
C44          O45   1.273       .  A
C44         C166   1.494       .  S
C46          O48   1.261       .  A
C46          O52   1.264       .  A
C46         C219   1.470       .  S
C50         C199   1.460       .  S
In53         O55   2.268       .  S
In53         O56   2.222       .  S
In53         O64   2.225       .  S
In53         O58   2.304       .  S
In53         O60   2.299       .  S
In53         O61   2.207       .  S
In53         O62   2.245       .  S
In53         O65   2.229       .  S
C54          O60   1.271       .  A
C54          O62   1.257       .  A
C54         C146   1.496       .  S
O55          C63   1.266       .  A
O56          C63   1.261       .  A
C57          O64   1.258       .  A
C57          O58   1.272       .  A
C57         C229   1.497       .  S
C59          O61   1.264       .  A
C59          O65   1.263       .  A
C59         C159   1.464       .  S
C63         C136   1.474       .  S
In66         O68   2.237       .  S
In66         O69   2.233       .  S
In66         O77   2.240       .  S
In66         O71   2.268       .  S
In66         O73   2.277       .  S
In66         O74   2.205       .  S
In66         O75   2.220       .  S
In66         O78   2.210       .  S
C67          O73   1.280       .  A
C67          O75   1.268       .  A
C67         C149   1.494       .  S
O68          C76   1.270       .  A
O69          C76   1.271       .  A
C70          O77   1.265       .  A
C70          O71   1.276       .  A
C70         C209   1.495   1_455  S
C72          O74   1.274       .  A
C72          O78   1.267       .  A
C72         C156   1.456       .  S
C76         C126   1.482       .  S
In79         O81   2.268       .  S
In79         O82   2.218       .  S
In79         O90   2.234       .  S
In79         O84   2.308       .  S
In79         O86   2.311       .  S
In79         O87   2.204       .  S
In79         O88   2.223       .  S
In79         O91   2.243       .  S
C80          O86   1.277       .  A
C80          O88   1.259       .  A
C80         C106   1.499       .  S
O81          C89   1.267       .  A
O82          C89   1.261       .  A
C83          O90   1.258       .  A
C83          O84   1.274       .  A
C83         C179   1.500       .  S
C85          O87   1.262       .  A
C85          O91   1.264       .  A
C85         C116   1.458       .  S
C89         C139   1.478       .  S
In92         O94   2.237       .  S
In92         O95   2.237       .  S
In92        O103   2.230       .  S
In92         O97   2.273       .  S
In92         O99   2.271       .  S
In92        O100   2.212       .  S
In92        O101   2.218       .  S
In92        O104   2.212       .  S
C93          O99   1.279       .  A
C93         O101   1.268       .  A
C93         C109   1.491       .  S
O94         C102   1.269       .  A
O95         C102   1.270       .  A
C96         O103   1.264       .  A
C96          O97   1.276       .  A
C96         C169   1.493   1_455  S
C98         O100   1.273       .  A
C98         O104   1.267       .  A
C98         C119   1.459       .  S
C102        C129   1.480       .  S
C105        C106   1.412       .  A
C105        C110   1.404       .  A
C105        H111   1.083       .  S
C106        C371   1.405       .  A
C107        C108   1.404       .  A
C107        C370   1.403       .  A
C107        H112   1.083       .  S
C108        C109   1.410       .  A
C108        H113   1.083       .  S
C109        C374   1.403       .  A
C110        C373   1.403       .  A
C110        H114   1.082       .  S
C115        C116   1.405       .  A
C115        C120   1.396       .  A
C115        H121   1.084       .  S
C116        C117   1.400       .  A
C117        C118   1.395       .  A
C117        H122   1.083       .  S
C118        C119   1.403       .  A
C118        H123   1.083       .  S
C119        C120   1.398       .  A
C120        H124   1.083       .  S
C125        C126   1.406       .  A
C125        C130   1.403       .  A
C125        H131   1.084       .  S
C126        C127   1.405       .  A
C127        C128   1.402       .  A
C127        H132   1.083       .  S
C128        C129   1.405       .  A
C128        H133   1.083       .  S
C129        C130   1.404       .  A
C130        H134   1.083       .  S
C135        C136   1.406       .  A
C135        C140   1.405       .  A
C135        H141   1.083       .  S
C136        C137   1.401       .  A
C137        C138   1.395       .  A
C137        H142   1.083       .  S
C138        C139   1.405       .  A
C138        H143   1.083       .  S
C139        C140   1.406       .  A
C140        H144   1.083       .  S
C145        C146   1.413       .  A
C145        C150   1.408       .  A
C145        H151   1.083       .  S
C146        C147   1.404       .  A
C147        C148   1.405       .  A
C147        H152   1.083       .  S
C148        C149   1.411       .  A
C148        H153   1.083       .  S
C149        C150   1.403       .  A
C150        H154   1.083       .  S
C155        C156   1.403       .  A
C155        C160   1.393       .  A
C155        H161   1.082       .  S
C156        C421   1.397       .  A
C157        C158   1.397   1_565  A
C157        C420   1.404       .  A
C157        H162   1.082       .  S
C158        C159   1.404       .  A
C158        H163   1.084       .  S
C159        C424   1.401       .  A
C160        C423   1.399       .  A
C160        H164   1.083       .  S
C165        C166   1.412   1_556  A
C165        C170   1.403   1_556  A
C165        H171   1.083       .  S
C166        C167   1.404       .  A
C167        C168   1.408       .  A
C167        H172   1.083       .  S
C168        C169   1.412       .  A
C168        H173   1.082       .  S
C169        C170   1.402       .  A
C170        H174   1.083   1_554  S
C175        C176   1.402       .  A
C175        C180   1.407       .  A
C175        H181   1.084       .  S
C176        C177   1.414       .  A
C177        C178   1.407       .  A
C177        H182   1.082   1_554  S
C178        C179   1.403       .  A
C178        H183   1.083       .  S
C179        C180   1.414       .  A
C180        H184   1.083       .  S
C185        C186   1.412       .  A
C185        C190   1.408       .  A
C185        H191   1.083   1_565  S
C186        C451   1.402   1_554  A
C187        C188   1.410       .  A
C187        C450   1.406   1_554  A
C187        H192   1.082       .  S
C188        C189   1.411   1_554  A
C188        H193   1.083       .  S
C189        C454   1.405       .  A
C190        C453   1.403   1_554  A
C190        H194   1.083       .  S
C195        C196   1.403   1_556  A
C195        C200   1.387       .  A
C195        H201   1.084       .  S
C196        C197   1.405       .  A
C197        C198   1.398       .  A
C197        H202   1.082       .  S
C198        C199   1.402   1_554  A
C198        H203   1.084       .  S
C199        C200   1.400       .  A
C200        H204   1.082       .  S
C205        C206   1.414       .  A
C205        C474   1.412   1_655  A
C205        H211   1.082       .  S
C206        C207   1.404   1_655  A
C207        C472   1.406       .  A
C207        H212   1.084   1_565  S
C208        C209   1.413       .  A
C208        C471   1.412       .  A
C208        H213   1.083       .  S
C209        C210   1.402       .  A
C210        C469   1.402       .  A
C210        H214   1.084       .  S
C215        C216   1.406       .  A
C215        C220   1.397       .  A
C215        H221   1.083   1_545  S
C216        C217   1.406       .  A
C217        C218   1.402       .  A
C217        H222   1.083       .  S
C218        C219   1.403       .  A
C218        H223   1.082       .  S
C219        C220   1.401       .  A
C220        H224   1.083       .  S
C225        C226   1.403       .  A
C225        C230   1.410       .  A
C225        H231   1.084       .  S
C226        C227   1.413       .  A
C227        C492   1.404       .  A
C227        H232   1.082       .  S
C228        C229   1.405       .  A
C228        C491   1.411       .  A
C228        H233   1.083       .  S
C229        C494   1.412       .  A
C230        C493   1.414       .  A
C230        H234   1.082       .  S
C235        C236   1.406       .  A
C235        C240   1.405       .  A
C235        H241   1.082       .  S
C236        C237   1.401       .  A
C237        C238   1.388       .  A
C237        H242   1.084       .  S
C238        C239   1.403       .  A
C238        H243   1.083       .  S
C239        C240   1.406       .  A
C240        H244   1.082       .  S
C245        C246   1.414       .  A
C245        C250   1.416       .  A
C245        H251   1.083       .  S
C246        C247   1.404       .  A
C247        C248   1.402       .  A
C247        H252   1.082       .  S
C248        C249   1.410       .  A
C248        H253   1.083       .  S
C249        C250   1.409       .  A
C250        H254   1.082       .  S
C255        C260   1.393       .  A
C255        C520   1.399   1_545  A
C255        H261   1.083       .  S
C256        C257   1.401       .  A
C256        C519   1.406       .  A
C257        C258   1.382       .  A
C257        H262   1.084       .  S
C258        C523   1.398       .  A
C258        H263   1.083       .  S
C259        C260   1.403       .  A
C259        C522   1.398   1_545  A
C260        H264   1.083       .  S
In265       O267   2.218       .  S
In265       O268   2.201       .  S
In265       O276   2.237       .  S
In265       O270   2.275       .  S
In265       O272   2.295       .  S
In265       O273   2.229       .  S
In265       O274   2.211       .  S
In265       O277   2.254       .  S
C266        O272   1.279       .  A
C266        O274   1.263       .  A
C266        C510   1.493       .  S
O267        C275   1.266       .  A
O268        C275   1.270       .  A
C269        O276   1.264       .  A
C269        O270   1.276       .  A
C269        C490   1.496   1_565  S
C271        O273   1.267       .  A
C271        O277   1.269       .  A
C271        C500   1.483       .  S
C275        C520   1.457       .  S
In278       O280   2.237       .  S
In278       O281   2.188       .  S
In278       O289   2.229       .  S
In278       O283   2.313       .  S
In278       O285   2.287       .  S
In278       O286   2.220       .  S
In278       O287   2.251       .  S
In278       O290   2.272       .  S
C279        O285   1.270       .  A
C279        O287   1.259       .  A
C279        C513   1.493       .  S
O280        C288   1.263       .  A
O281        C288   1.264       .  A
C282        O289   1.255       .  A
C282        O283   1.269       .  A
C282        C470   1.496       .  S
C284        O286   1.260       .  A
C284        O290   1.267       .  A
C284        C480   1.477       .  S
C288        C523   1.459       .  S
In291       O293   2.211   1_556  S
In291       O294   2.210       .  S
In291       O302   2.246       .  S
In291       O296   2.280   1_556  S
In291       O298   2.295       .  S
In291       O299   2.236       .  S
In291       O300   2.212       .  S
In291       O303   2.259       .  S
C292        O298   1.278       .  A
C292        O300   1.261       .  A
C292        C453   1.490       .  S
O293        C301   1.264       .  A
O294        C301   1.270   1_556  A
C295        O302   1.264       .  A
C295        O296   1.274   1_556  A
C295        C440   1.498   1_556  S
C297        O299   1.265       .  A
C297        O303   1.268       .  A
C297        C503   1.481       .  S
C301        C460   1.454       .  S
In304       O306   2.230   1_556  S
In304       O307   2.204       .  S
In304       O315   2.223       .  S
In304       O309   2.294   1_556  S
In304       O311   2.289       .  S
In304       O312   2.229       .  S
In304       O313   2.220       .  S
In304       O316   2.249       .  S
C305        O311   1.276       .  A
C305        O313   1.262       .  A
C305        C450   1.493       .  S
O306        C314   1.261       .  A
O307        C314   1.265   1_556  A
C308        O315   1.259       .  A
C308        O309   1.273   1_556  A
C308        C430   1.493   1_556  S
C310        O312   1.263       .  A
C310        O316   1.268       .  A
C310        C483   1.475       .  S
C314        C463   1.451       .  S
In317       O319   2.265       .  S
In317       O320   2.225       .  S
In317       O328   2.241       .  S
In317       O322   2.295       .  S
In317       O324   2.315       .  S
In317       O325   2.203       .  S
In317       O326   2.235       .  S
In317       O329   2.234       .  S
C318        O324   1.276       .  A
C318        O326   1.260       .  A
C318        C410   1.502       .  S
O319        C327   1.266       .  A
O320        C327   1.261       .  A
C321        O328   1.259       .  A
C321        O322   1.273       .  A
C321        C493   1.498       .  S
C323        O325   1.264       .  A
C323        O329   1.263       .  A
C323        C423   1.455       .  S
C327        C400   1.478       .  S
In330       O332   2.249       .  S
In330       O333   2.266       .  S
In330       O341   2.251       .  S
In330       O335   2.306       .  S
In330       O337   2.303       .  S
In330       O338   2.213       .  S
In330       O339   2.268       .  S
In330       O342   2.249       .  S
C331        O337   1.268       .  A
C331        O339   1.257       .  A
C331        C413   1.503       .  S
O332        C340   1.259       .  A
O333        C340   1.258       .  A
C334        O341   1.258       .  A
C334        O335   1.267       .  A
C334        C473   1.500       .  S
C336        O338   1.257       .  A
C336        O342   1.262       .  A
C336        C420   1.464       .  S
C340        C390   1.476       .  S
In343       O345   2.262       .  S
In343       O346   2.217       .  S
In343       O354   2.232       .  S
In343       O348   2.305       .  S
In343       O350   2.289       .  S
In343       O351   2.185       .  S
In343       O352   2.239       .  S
In343       O355   2.227       .  S
C344        O350   1.271       .  A
C344        O352   1.258       .  A
C344        C370   1.491       .  S
O345        C353   1.266       .  A
O346        C353   1.261       .  A
C347        O354   1.258       .  A
C347        O348   1.272       .  A
C347        C443   1.499       .  S
C349        O351   1.263       .  A
C349        O355   1.263       .  A
C349        C380   1.454       .  S
C353        C403   1.472       .  S
In356       O358   2.280       .  S
In356       O359   2.201       .  S
In356       O367   2.234       .  S
In356       O361   2.312       .  S
In356       O363   2.294       .  S
In356       O364   2.173       .  S
In356       O365   2.266       .  S
In356       O368   2.245       .  S
C357        O363   1.266       .  A
C357        O365   1.256       .  A
C357        C373   1.498   1_565  S
O358        C366   1.267       .  A
O359        C366   1.256       .  A
C360        O367   1.254       .  A
C360        O361   1.271       .  A
C360        C433   1.493       .  S
C362        O364   1.261       .  A
C362        O368   1.266       .  A
C362        C383   1.459       .  S
C366        C393   1.476       .  S
C369        C370   1.411       .  A
C369        C374   1.407       .  A
C369        H375   1.083       .  S
C371        C372   1.411       .  A
C371        H376   1.082       .  S
C372        C373   1.413       .  A
C372        H377   1.083   1_545  S
C374        H378   1.083       .  S
C379        C380   1.402       .  A
C379        C384   1.398       .  A
C379        H385   1.084       .  S
C380        C381   1.399       .  A
C381        C382   1.382       .  A
C381        H386   1.083       .  S
C382        C383   1.401       .  A
C382        H387   1.084       .  S
C383        C384   1.405       .  A
C384        H388   1.082       .  S
C389        C390   1.401       .  A
C389        C394   1.391       .  A
C389        H395   1.084       .  S
C390        C391   1.408       .  A
C391        C392   1.404       .  A
C391        H396   1.083       .  S
C392        C393   1.404       .  A
C392        H397   1.083       .  S
C393        C394   1.406       .  A
C394        H398   1.084       .  S
C399        C400   1.406       .  A
C399        C404   1.404       .  A
C399        H405   1.083       .  S
C400        C401   1.404       .  A
C401        C402   1.395       .  A
C401        H406   1.083       .  S
C402        C403   1.401       .  A
C402        H407   1.083       .  S
C403        C404   1.405       .  A
C404        H408   1.083       .  S
C409        C410   1.412       .  A
C409        C414   1.406       .  A
C409        H415   1.083       .  S
C410        C411   1.406       .  A
C411        C412   1.413       .  A
C411        H416   1.082       .  S
C412        C413   1.415       .  A
C412        H417   1.082       .  S
C413        C414   1.404       .  A
C414        H418   1.083       .  S
C419        C420   1.402       .  A
C419        C424   1.388   1_565  A
C419        H425   1.084       .  S
C421        C422   1.395       .  A
C421        H426   1.083       .  S
C422        C423   1.405       .  A
C422        H427   1.083       .  S
C424        H428   1.083       .  S
C429        C430   1.412       .  A
C429        C434   1.405   1_655  A
C429        H435   1.083   1_554  S
C430        C431   1.403   1_655  A
C431        C432   1.406       .  A
C431        H436   1.083       .  S
C432        C433   1.413       .  A
C432        H437   1.082       .  S
C433        C434   1.401       .  A
C434        H438   1.084       .  S
C439        C440   1.404       .  A
C439        C444   1.405       .  A
C439        H445   1.083       .  S
C440        C441   1.412   1_554  A
C441        C442   1.411   1_556  A
C441        H446   1.083       .  S
C442        C443   1.405       .  A
C442        H447   1.083   1_554  S
C443        C444   1.412       .  A
C444        H448   1.083       .  S
C449        C450   1.409       .  A
C449        C454   1.401       .  A
C449        H455   1.083       .  S
C451        C452   1.402       .  A
C451        H456   1.083       .  S
C452        C453   1.411       .  A
C452        H457   1.082       .  S
C454        H458   1.082       .  S
C459        C460   1.404       .  A
C459        C464   1.393       .  A
C459        H465   1.082       .  S
C460        C461   1.397       .  A
C461        C462   1.393       .  A
C461        H466   1.083       .  S
C462        C463   1.404       .  A
C462        H467   1.083       .  S
C463        C464   1.397       .  A
C464        H468   1.083       .  S
C469        C470   1.411       .  A
C469        H475   1.083       .  S
C470        C471   1.405       .  A
C471        H476   1.083       .  S
C472        C473   1.411       .  A
C472        H477   1.083       .  S
C473        C474   1.406       .  A
C474        H478   1.083   1_455  S
C479        C480   1.403       .  A
C479        C484   1.404       .  A
C479        H485   1.082       .  S
C480        C481   1.405       .  A
C481        C482   1.396       .  A
C481        H486   1.083       .  S
C482        C483   1.401       .  A
C482        H487   1.083       .  S
C483        C484   1.407       .  A
C484        H488   1.083       .  S
C489        C490   1.402       .  A
C489        C494   1.403       .  A
C489        H495   1.084   1_545  S
C490        C491   1.413       .  A
C491        H496   1.083       .  S
C492        C493   1.402       .  A
C492        H497   1.084       .  S
C494        H498   1.083       .  S
C499        C500   1.406       .  A
C499        C504   1.406       .  A
C499        H505   1.083       .  S
C500        C501   1.406       .  A
C501        C502   1.400       .  A
C501        H506   1.082       .  S
C502        C503   1.404       .  A
C502        H507   1.082       .  S
C503        C504   1.404       .  A
C504        H508   1.083       .  S
C509        C510   1.411       .  A
C509        C514   1.403       .  A
C509        H515   1.083       .  S
C510        C511   1.404       .  A
C511        C512   1.410       .  A
C511        H516   1.083       .  S
C512        C513   1.412       .  A
C512        H517   1.083       .  S
C513        C514   1.402       .  A
C514        H518   1.083       .  S
C519        C524   1.402       .  A
C519        H525   1.082       .  S
C520        C521   1.403       .  A
C521        C522   1.394       .  A
C521        H526   1.083       .  S
C522        H527   1.083       .  S
C523        C524   1.404       .  A
C524        H528   1.084       .  S
