geometry optimzed in LAMMPS
_audit_creation_date              2020-11-30 
_audit_creation_method            'lammps2cif' 
_symmetry_space_group_name_H-M    'P1' 
_symmetry_Int_Tables_number       1 
_symmetry_cell_setting            triclinic 
loop_ 
_symmetry_equiv_pos_as_xyz 
  x,y,z 
_cell_length_a                    39.81835111 
_cell_length_b                    39.872361029843525 
_cell_length_c                    24.290017631992768 
_cell_angle_alpha                 88.42731079969444 
_cell_angle_beta                  89.35381544245311 
_cell_angle_gamma                 90.0705653420435 
loop_ 
_atom_site_label 
_atom_site_type_symbol 
_atom_site_fract_x 
_atom_site_fract_y 
_atom_site_fract_z 
_atom_site_charge 
C1          C  0.85980802  0.34749391  0.05541064     0.31000
C2          C  0.85993147  0.34751875  0.94323961     0.31000
C3          C  0.82991391  0.36504046  0.02740507    -0.05200
C4          C  0.89013904  0.36485652  0.02670746    -0.06000
C5          C  0.85979284  0.31253817  0.02976453    -0.05900
C6          C  0.83004562  0.36482928  0.97035878    -0.05200
C7          C  0.89022482  0.36469425  0.96937602    -0.06000
C8          C  0.85977726  0.31257434  0.97175534    -0.05900
C9          C  0.80088047  0.37990918  0.95270735    -0.31300
N10         N  0.78302451  0.38942569  0.99764379     0.15200
C11         C  0.80060529  0.38063886  0.04343409    -0.31300
H12         H  0.79228637  0.38479349  0.08528445     0.17200
C13         C  0.91716402  0.38386035  0.95106139    -0.30300
N14         N  0.93316169  0.39598539  0.99549911     0.13900
C15         C  0.91692694  0.38447828  0.04180229    -0.30300
C16         C  0.87507200  0.28312748  0.95651084    -0.30600
N17         N  0.88341459  0.26493617  0.00219025     0.14400
H18         H  0.88258165  0.27689699  0.91508672     0.17100
C19         C  0.87511199  0.28300684  0.04686180    -0.30600
H20         H  0.88260350  0.27683120  0.08863102     0.17100
H21         H  0.92328607  0.39133340  0.08323176     0.17100
H22         H  0.79306641  0.38309059  0.91042080     0.17100
H23         H  0.92385638  0.38960097  0.90861595     0.17100
C24         C  0.85262784  0.35736445  0.44327318     0.31000
C25         C  0.85141795  0.35466672  0.55551471     0.31000
C26         C  0.86908143  0.32653163  0.47048271    -0.08400
C27         C  0.87016329  0.38657554  0.47143989    -0.06000
C28         C  0.81735173  0.35745166  0.47002370    -0.05900
C29         C  0.86862643  0.32511507  0.52759609    -0.05200
C30         C  0.86980351  0.38506421  0.52882864    -0.06000
C31         C  0.81678080  0.35602034  0.52800374    -0.05900
C32         C  0.88396627  0.29551111  0.54368152    -0.31300
N33         N  0.89334546  0.27895763  0.49784219     0.15200
C34         C  0.88443524  0.29778394  0.45285839    -0.31300
H35         H  0.88832597  0.29094889  0.41046053     0.17200
C36         C  0.89195808  0.40916448  0.54610078    -0.30300
N37         N  0.90507140  0.42551375  0.50107840     0.13900
C38         C  0.89181243  0.41202809  0.45534341    -0.30300
C39         C  0.78728613  0.37113899  0.54443400    -0.30600
N40         N  0.76967055  0.38091808  0.49931279     0.14400
H41         H  0.78084313  0.37744086  0.58631340     0.17100
C42         C  0.78820758  0.37366772  0.45405902    -0.30600
H43         H  0.78240409  0.38236383  0.41268512     0.17100
H44         H  0.89902075  0.41880825  0.41347043     0.17100
H45         H  0.88764648  0.28636337  0.58554155     0.17100
H46         H  0.89969098  0.41321224  0.58793448     0.17100
C47         C  0.35607762  0.15653868  0.05339151     0.31000
C48         C  0.35771576  0.15926329  0.94127174     0.31000
C49         C  0.37187360  0.18814044  0.02679987    -0.05200
C50         C  0.37563871  0.12817899  0.02591559    -0.06000
C51         C  0.32149434  0.15493497  0.02558651    -0.05900
C52         C  0.37293402  0.18971455  0.96967876    -0.05200
C53         C  0.37652143  0.12956740  0.96864560    -0.06000
C54         C  0.32251607  0.15641949  0.96766783    -0.05900
C55         C  0.38729052  0.22025907  0.95462351    -0.31300
N56         N  0.39465032  0.23701879  0.00105722     0.15200
C57         C  0.38530950  0.21750732  0.04537047    -0.31300
H58         H  0.38764676  0.22423530  0.08793567     0.17200
C59         C  0.39700207  0.10376385  0.95192382    -0.30300
N60         N  0.40840459  0.08684486  0.99734920     0.13900
C61         C  0.39547385  0.10155115  0.04271213    -0.30300
C62         C  0.29406426  0.14042706  0.94984839    -0.30600
N63         N  0.27548357  0.12987863  0.99410564     0.14400
H64         H  0.28905057  0.13417434  0.90766670     0.17100
C65         C  0.29239986  0.13768243  0.04022090    -0.30600
H66         H  0.28562379  0.12869741  0.08132114     0.17100
H67         H  0.40085580  0.09391460  0.08477658     0.17100
H68         H  0.39185620  0.22978449  0.91302401     0.17100
H69         H  0.40418438  0.09849245  0.90999156     0.17100
C70         C  0.36156005  0.16054416  0.55294829     0.31000
C71         C  0.35993037  0.16148221  0.44084236     0.31000
C72         C  0.36104968  0.19565014  0.52491601    -0.05200
C73         C  0.39153578  0.14371594  0.52433576    -0.06000
C74         C  0.33135661  0.14323794  0.52766522    -0.05900
C75         C  0.36021481  0.19617477  0.46703614    -0.05200
C76         C  0.39062630  0.14410576  0.46700116    -0.06000
C77         C  0.33046350  0.14344981  0.47059173    -0.05900
C78         C  0.37495337  0.22606900  0.44920134    -0.31300
N79         N  0.38390457  0.24380197  0.49352224     0.15200
C80         C  0.37651993  0.22502850  0.53945718    -0.31300
H81         H  0.38458166  0.23079715  0.58045539     0.17200
C82         C  0.41727142  0.12504661  0.44917407    -0.30300
N83         N  0.43435659  0.11333787  0.49388009     0.13900
C84         C  0.41893440  0.12473071  0.53993885    -0.30300
C85         C  0.30090962  0.12792384  0.45644029    -0.30600
N86         N  0.28386559  0.11891964  0.50335583     0.14400
H87         H  0.29197018  0.12408234  0.41527981     0.17100
C88         C  0.30235779  0.12806956  0.54714172    -0.30600
H89         H  0.29494126  0.12482052  0.59001807     0.17100
H90         H  0.42624517  0.11833395  0.58169836     0.17100
H91         H  0.38154328  0.23290818  0.40701117     0.17100
H92         H  0.42290198  0.11887217  0.40704573     0.17100
C93         C  0.64579563  0.87156414  0.05895190     0.31000
C94         C  0.64355479  0.87106227  0.94673771     0.31000
C95         C  0.64155368  0.83679215  0.03370267    -0.05200
C96         C  0.61728492  0.89184572  0.03238838    -0.06000
C97         C  0.67713823  0.88539805  0.02840602    -0.05900
C98         C  0.64031694  0.83657291  0.97637951    -0.05200
C99         C  0.61581091  0.89146922  0.97527264    -0.06000
C100        C  0.67589409  0.88514851  0.97115683    -0.05900
C101        C  0.63234245  0.80431245  0.96207072    -0.31300
N102        N  0.62879648  0.78504233  0.00882815     0.15200
C103        C  0.63462027  0.80456391  0.05274941    -0.31300
H104        H  0.63266206  0.79619901  0.09536634     0.17200
C105        C  0.58850938  0.91082599  0.96006083    -0.30300
N106        N  0.57413227  0.92343672  0.00607101     0.13900
C107        C  0.59148167  0.91184963  0.05056061    -0.30300
C108        C  0.70681186  0.89566194  0.95119653    -0.30600
N109        N  0.72679447  0.90215012  0.99469850     0.14400
H110        H  0.71446953  0.89728187  0.90828075     0.17100
C111        C  0.70895645  0.89585294  0.04194288    -0.30600
H112        H  0.71884452  0.89775352  0.08296446     0.17100
H113        H  0.58605425  0.91773812  0.09293830     0.17100
H114        H  0.62757775  0.79586154  0.92091978     0.17100
H115        H  0.57970865  0.91569987  0.91866622     0.17100
C116        C  0.64733663  0.87394350  0.55862025     0.31000
C117        C  0.64755826  0.87563031  0.44619369     0.31000
C118        C  0.63314928  0.84259985  0.53146362    -0.05200
C119        C  0.62690256  0.90243168  0.53112348    -0.06000
C120        C  0.68188458  0.87820178  0.53075447    -0.05900
C121        C  0.63333563  0.84335867  0.47412181    -0.05200
C122        C  0.62705605  0.90318784  0.47382072    -0.06000
C123        C  0.68222315  0.87879892  0.47337724    -0.05900
C124        C  0.62054604  0.81297444  0.45794385    -0.31300
N125        N  0.61251480  0.79406253  0.50366469     0.15200
C126        C  0.62005735  0.81198640  0.54874190    -0.31300
H127        H  0.61640868  0.80337126  0.59105315     0.17200
C128        C  0.60661437  0.92925166  0.45680679    -0.30300
N129        N  0.59414590  0.94438984  0.50210529     0.13900
C130        C  0.60632678  0.92818191  0.54765348    -0.30300
C131        C  0.71473950  0.88625893  0.45676682    -0.30600
N132        N  0.73361258  0.89105151  0.50222416     0.14400
H133        H  0.72375431  0.88948792  0.41490488     0.17100
C134        C  0.71375633  0.88618901  0.54757168    -0.30600
H135        H  0.72152985  0.88977048  0.58956662     0.17100
H136        H  0.60006587  0.93427539  0.58959347     0.17100
H137        H  0.61758422  0.80494018  0.41615543     0.17100
H138        H  0.60088237  0.93640501  0.41462704     0.17100
C139        C  0.14788780  0.63535065  0.94469027     0.31000
C140        C  0.14493826  0.63414979  0.05718321     0.31000
C141        C  0.13379527  0.66710613  0.97110855    -0.05200
C142        C  0.12616908  0.60733878  0.97164990    -0.06000
C143        C  0.18187037  0.63016125  0.97435923    -0.05900
C144        C  0.13228846  0.66648316  0.02829648    -0.05200
C145        C  0.12485651  0.60674322  0.02893677    -0.06000
C146        C  0.18025827  0.63020131  0.03189722    -0.05900
C147        C  0.11983001  0.69712338  0.04381372    -0.31300
N148        N  0.11353711  0.71621930  0.99787544     0.15200
C149        C  0.12200966  0.69811121  0.95313908    -0.31300
H150        H  0.12000244  0.70691022  0.91075855     0.17200
C151        C  0.10495724  0.58000485  0.04551230    -0.30300
N152        N  0.09401118  0.56432867  0.99998422     0.13900
C153        C  0.10679904  0.58086747  0.95464057    -0.30300
C154        C  0.21117877  0.62000818  0.05135132    -0.30600
N155        N  0.23126692  0.61291261  0.00768796     0.14400
H156        H  0.21797053  0.61630668  0.09404233     0.17100
C157        C  0.21342888  0.61804520  0.96096397    -0.30600
H158        H  0.22233441  0.61079343  0.92093923     0.17100
H159        H  0.10238367  0.57409786  0.91252304     0.17100
H160        H  0.11595867  0.70519569  0.08545676     0.17100
H161        H  0.09882534  0.57270742  0.08767568     0.17100
C162        C  0.14099429  0.64283238  0.55660860     0.31000
C163        C  0.13893497  0.64365982  0.44423036     0.31000
C164        C  0.17445942  0.63497302  0.52693106    -0.05200
C165        C  0.11668739  0.61777897  0.53134779    -0.06000
C166        C  0.13063615  0.67628530  0.52909775    -0.05900
C167        C  0.17325482  0.63541198  0.46960540    -0.05200
C168        C  0.11554933  0.61841639  0.47417042    -0.06000
C169        C  0.12994179  0.67706403  0.47169340    -0.05900
C170        C  0.20472966  0.62680481  0.45044500    -0.31300
N171        N  0.22500216  0.62096534  0.49434324     0.15200
C172        C  0.20677732  0.62584872  0.54116248    -0.31300
H173        H  0.21631166  0.62237005  0.58241669     0.17200
C174        C  0.09131881  0.59583535  0.45938616    -0.30300
N175        N  0.07793078  0.58137392  0.50597141     0.13900
C176        C  0.09333429  0.59449031  0.55016879    -0.30300
C177        C  0.12238230  0.70970156  0.45574938    -0.30600
N178        N  0.11729860  0.72804755  0.50147697     0.14400
H179        H  0.12141477  0.71983915  0.41424798     0.17100
C180        C  0.12246848  0.70788812  0.54651780    -0.30600
H181        H  0.12065181  0.71570303  0.58878858     0.17100
H182        H  0.08752721  0.58805111  0.59280552     0.17100
H183        H  0.21214506  0.62451845  0.40771199     0.17100
H184        H  0.08363409  0.59067556  0.41792668     0.17100
O185        O  0.02722460  0.95225941  0.94655698    -0.70800
O186        O  0.99268572  0.04121818  0.94797301    -0.71000
O187        O  0.05470012  0.01414916  0.94782497    -0.70900
O188        O  0.96533372  0.97965270  0.94704623    -0.70900
O189        O  0.96506109  0.97717462  0.03653322    -0.70900
O190        O  0.05361923  0.01252428  0.03731565    -0.70900
O191        O  0.99152365  0.03906484  0.03745796    -0.70800
O192        O  0.02695665  0.95033773  0.03603947    -0.71000
V193        V  0.01002965  0.99675512  0.94907805     1.35200
V194        V  0.00936459  0.99479373  0.03506547     1.35200
C195        C  0.03279581  0.93607745  0.99103419     0.78400
C196        C  0.98582289  0.05511281  0.99290368     0.78500
C197        C  0.06918908  0.01954575  0.99283391     0.78300
C198        C  0.94996467  0.97277250  0.99181095     0.78300
O199        O  0.99063787  0.04874293  0.55154805    -0.70800
O200        O  0.02678650  0.96043233  0.55421744    -0.71000
O201        O  0.05286971  0.02277448  0.55191878    -0.70900
O202        O  0.96440380  0.98650837  0.55382071    -0.70900
O203        O  0.96544166  0.98539422  0.46441277    -0.70900
O204        O  0.05248789  0.02453886  0.46241661    -0.70900
O205        O  0.02851239  0.96152638  0.46473160    -0.70800
O206        O  0.98954111  0.04864870  0.46212258    -0.71000
V207        V  0.00865909  0.00461537  0.55115226     1.35200
V208        V  0.00896190  0.00502011  0.46517084     1.35200
C209        C  0.98389966  0.06368998  0.50642673     0.78400
C210        C  0.03413627  0.94610560  0.50985399     0.78500
C211        C  0.06758730  0.03005852  0.50677237     0.78300
C212        C  0.95004250  0.97945227  0.50941017     0.78300
O213        O  0.55542217  0.49215459  0.04981028    -0.70800
O214        O  0.46683375  0.52794594  0.05063170    -0.71000
O215        O  0.49318249  0.46579589  0.04928286    -0.70900
O216        O  0.52937030  0.55437015  0.05106742    -0.70900
O217        O  0.53099945  0.55593024  0.96159516    -0.70900
O218        O  0.49298378  0.46844176  0.95981754    -0.70900
O219        O  0.46792354  0.53089579  0.96117582    -0.70800
O220        O  0.55567831  0.49329890  0.96030359    -0.71000
V221        V  0.51120866  0.51014650  0.04847750     1.35200
V222        V  0.51185472  0.51217056  0.96249423     1.35200
C223        C  0.57045799  0.48633832  0.00493538     0.78400
C224        C  0.45220200  0.53526292  0.00596533     0.78500
C225        C  0.48685864  0.45211509  0.00416442     0.78300
C226        C  0.53688706  0.56997062  0.00656028     0.78300
O227        O  0.45987551  0.53325046  0.53626604    -0.70800
O228        O  0.54785069  0.49612270  0.53539347    -0.71000
O229        O  0.52239917  0.55889594  0.53794793    -0.70900
O230        O  0.48541627  0.47075698  0.53341629    -0.70900
O231        O  0.48605541  0.47386745  0.44396018    -0.70900
O232        O  0.52330591  0.56168938  0.44849804    -0.70900
O233        O  0.54874605  0.49894383  0.44593064    -0.70800
O234        O  0.46063159  0.53635390  0.44682282    -0.71000
V235        V  0.50391767  0.51483722  0.53400900     1.35200
V236        V  0.50472078  0.51769507  0.44805995     1.35200
C237        C  0.44522812  0.54105602  0.49178963     0.78400
C238        C  0.56308016  0.49075356  0.49056003     0.78500
C239        C  0.52885879  0.57541404  0.49386091     0.78300
C240        C  0.47948667  0.45733182  0.48792621     0.78300
C241        C  0.36454219  0.57324030  0.46529454     0.30700
C242        C  0.33701123  0.58341802  0.43316736    -0.35600
C243        C  0.30828008  0.59379853  0.46224438     0.16700
C244        C  0.30676948  0.59421349  0.51903177     0.22500
C245        C  0.33430491  0.58415226  0.55107816    -0.33700
C246        C  0.36294570  0.57369157  0.52204979     0.16600
O247        O  0.39368648  0.56198901  0.44687123    -0.25700
C248        C  0.41095187  0.55510760  0.49248412     0.06400
C249        C  0.39304140  0.56193991  0.54040934    -0.30600
O250        O  0.27726520  0.60416942  0.53777859    -0.22500
C251        C  0.25955142  0.61024784  0.49242654    -0.02500
C252        C  0.27760284  0.60427619  0.44412119    -0.16900
H253        H  0.33780800  0.58295089  0.38866112     0.21100
H254        H  0.33333757  0.58413347  0.59564624     0.19500
H255        H  0.40097662  0.55844727  0.58267124     0.19400
H256        H  0.26933891  0.60680544  0.40196034     0.15300
C257        C  0.09026092  0.80843327  0.53201490     0.30700
C258        C  0.07898958  0.83439692  0.56556081    -0.35600
C259        C  0.06837498  0.86388706  0.53797004     0.16700
C260        C  0.06893612  0.86759876  0.48130101     0.22500
C261        C  0.08039412  0.84177250  0.44783153    -0.33700
C262        C  0.09087146  0.81229411  0.47536091     0.16600
O263        O  0.10013779  0.77827756  0.54886616    -0.25700
C264        C  0.10717682  0.76268304  0.50232161     0.06400
C265        C  0.10192831  0.78269540  0.45529182    -0.30600
O266        O  0.05715579  0.89690412  0.46405628    -0.22500
C267        C  0.04891356  0.91226720  0.51022622    -0.02500
C268        C  0.05538808  0.89294492  0.55754542    -0.16900
H269        H  0.07804752  0.83160338  0.61000210     0.21100
H270        H  0.08062344  0.84429355  0.40335887     0.19500
H271        H  0.10500837  0.77629905  0.41255229     0.19400
H272        H  0.05083428  0.89926600  0.60003087     0.15300
C273        C  0.15926573  0.64273092  0.69904097     0.30700
C274        C  0.17986783  0.64249843  0.74534429    -0.35600
C275        C  0.16328786  0.64117387  0.79649130     0.16700
C276        C  0.12885236  0.63998960  0.80207743     0.22500
C277        C  0.10809929  0.64132707  0.75562457    -0.33700
C278        C  0.12472750  0.64288431  0.70424043     0.16600
O279        O  0.16958949  0.64253603  0.64735201    -0.25700
C280        C  0.14136183  0.64290612  0.61868318     0.06400
C281        C  0.11263523  0.64380491  0.65198838    -0.30600
O282        O  0.11900813  0.63762112  0.85415821    -0.22500
C283        C  0.14759547  0.63718463  0.88232823    -0.02500
C284        C  0.17581277  0.64032834  0.84813556    -0.16900
H285        H  0.20700017  0.64275194  0.74174905     0.21100
H286        H  0.08100002  0.64076457  0.75923868     0.19500
H287        H  0.08665871  0.64432302  0.63941681     0.19400
H288        H  0.20183973  0.64328575  0.85853929     0.15300
C289        C  0.12954488  0.64723559  0.19897722     0.30700
C290        C  0.11697100  0.66438517  0.24431894    -0.35600
C291        C  0.12634473  0.65162399  0.29613405     0.16700
C292        C  0.14657256  0.62386205  0.30303827     0.22500
C293        C  0.15826976  0.60596887  0.25758562    -0.33700
C294        C  0.14889440  0.61878548  0.20554670     0.16600
O295        O  0.12559462  0.65617107  0.14696264    -0.25700
C296        C  0.14241667  0.63316061  0.11932158     0.06400
C297        C  0.15684402  0.60874991  0.15375635    -0.30600
O298        O  0.15345958  0.61746338  0.35526407    -0.22500
C299        C  0.13775983  0.64170516  0.38217658    -0.02500
C300        C  0.11960706  0.66299921  0.34724898    -0.16900
H301        H  0.10175911  0.68672718  0.23946830     0.21100
H302        H  0.17421527  0.58415129  0.26239329     0.19500
H303        H  0.17171614  0.58730067  0.14231223     0.19400
H304        H  0.10298773  0.68331141  0.35720190     0.15300
C305        C  0.31210160  0.58403487  0.98171660     0.30700
C306        C  0.33976858  0.57498127  0.94906471    -0.35600
C307        C  0.36869733  0.56494091  0.97748455     0.16700
C308        C  0.37035646  0.56371946  0.03422044     0.22500
C309        C  0.34262637  0.57277734  0.06695817    -0.33700
C310        C  0.31365631  0.58295343  0.03848991     0.16600
O311        O  0.28272537  0.59450678  0.96356525    -0.25700
C312        C  0.26512133  0.60026588  0.00925892     0.06400
C313        C  0.28308264  0.59351267  0.05723805    -0.30600
O314        O  0.39994538  0.55337834  0.05201277    -0.22500
C315        C  0.41745889  0.54803577  0.00600141    -0.02500
C316        C  0.39924336  0.55482141  0.95845583    -0.16900
H317        H  0.33883573  0.57581650  0.90452761     0.21100
H318        H  0.34359116  0.57201940  0.11148530     0.19500
H319        H  0.27500602  0.59616871  0.09958041     0.19400
H320        H  0.40729258  0.55237092  0.91603231     0.15300
C321        C  0.06133304  0.85404998  0.01915046     0.30700
C322        C  0.07023970  0.82615648  0.05230754    -0.35600
C323        C  0.08152578  0.79783885  0.02447827     0.16700
C324        C  0.08389725  0.79685413  0.96781169     0.22500
C325        C  0.07484014  0.82477575  0.93456209    -0.33700
C326        C  0.06357440  0.85318190  0.96246395     0.16600
O327        O  0.05038975  0.88317464  0.03667971    -0.25700
C328        C  0.04550488  0.90132482  0.99065718     0.06400
C329        C  0.05325685  0.88391983  0.94319676    -0.30600
O330        O  0.09544987  0.76778652  0.95065923    -0.22500
C331        C  0.10052162  0.74997839  0.99707542    -0.02500
C332        C  0.09221867  0.76746866  0.04423322    -0.16900
H333        H  0.06863524  0.82655363  0.09680073     0.21100
H334        H  0.07660239  0.82444344  0.89009466     0.19500
H335        H  0.05154976  0.89268173  0.90074636     0.19400
H336        H  0.09390612  0.75925366  0.08691984     0.15300
C337        C  0.55923893  0.65566789  0.52479279     0.30700
C338        C  0.56959835  0.68182862  0.55840486    -0.35600
C339        C  0.58017733  0.71156576  0.53093669     0.16700
C340        C  0.58046500  0.71535858  0.47426878     0.22500
C341        C  0.56998356  0.68927457  0.44071797    -0.33700
C342        C  0.55954309  0.65953527  0.46815896     0.16600
O343        O  0.54860713  0.62561935  0.54162112    -0.25700
C344        C  0.54209667  0.61001007  0.49509026     0.06400
C345        C  0.54843394  0.62995840  0.44817811    -0.30600
O346        O  0.59176805  0.74506461  0.45719674    -0.22500
C347        C  0.59881914  0.76058229  0.50354400    -0.02500
C348        C  0.59206505  0.74093804  0.55077757    -0.16900
H349        H  0.56961375  0.67912186  0.60285640     0.21100
H350        H  0.57019068  0.69189578  0.39623358     0.19500
H351        H  0.54520651  0.62358026  0.40551863     0.19400
H352        H  0.59564590  0.74713336  0.59339166     0.15300
C353        C  0.87231479  0.94251783  0.48140879     0.30700
C354        C  0.84733040  0.92868989  0.44855628    -0.35600
C355        C  0.81742154  0.91917139  0.47585802     0.16700
C356        C  0.81246868  0.92288001  0.53170964     0.22500
C357        C  0.83752153  0.93657580  0.56459838    -0.33700
C358        C  0.86740718  0.94614521  0.53727167     0.16600
O359        O  0.90192636  0.95370250  0.46424244    -0.25700
C360        C  0.91623460  0.96454646  0.50971890     0.06400
C361        C  0.89594862  0.96043000  0.55644479    -0.30600
O362        O  0.78234652  0.91293291  0.54849460    -0.22500
C363        C  0.76779508  0.90274777  0.50277523    -0.02500
C364        C  0.78845030  0.90601868  0.45624268    -0.16900
H365        H  0.85083084  0.92588438  0.40469934     0.21100
H366        H  0.83384497  0.93983345  0.60833997     0.19500
H367        H  0.90134417  0.96727528  0.59823514     0.19400
H368        H  0.78292161  0.90001493  0.41416639     0.15300
C369        C  0.64144126  0.88763118  0.70196627     0.30700
C370        C  0.63399201  0.90569385  0.74918752    -0.35600
C371        C  0.63957989  0.88889896  0.79961345     0.16700
C372        C  0.65116364  0.85636049  0.80359631     0.22500
C373        C  0.65953272  0.83854787  0.75622066    -0.33700
C374        C  0.65442126  0.85559571  0.70559759     0.16600
O375        O  0.63719390  0.89825492  0.65073091    -0.25700
C376        C  0.64783954  0.87289862  0.62075478     0.06400
C377        C  0.65952227  0.84590071  0.65278567    -0.30600
O378        O  0.65353816  0.84539556  0.85520968    -0.22500
C379        C  0.64331141  0.87130721  0.88458834    -0.02500
C380        C  0.63531268  0.89931543  0.85192428    -0.16900
H381        H  0.62427081  0.93104557  0.74676945     0.21100
H382        H  0.66915284  0.81318784  0.75863502     0.19500
H383        H  0.66956848  0.82231446  0.63905111     0.19400
H384        H  0.62786464  0.92402007  0.86467761     0.15300
C385        C  0.63269068  0.86669441  0.30374672     0.30700
C386        C  0.61763692  0.85313850  0.25746470    -0.35600
C387        C  0.63069742  0.86409478  0.20628521     0.16700
C388        C  0.65701689  0.88650637  0.20087244     0.22500
C389        C  0.67111851  0.90118156  0.24716609    -0.33700
C390        C  0.65776477  0.89048352  0.29843540     0.16600
O391        O  0.62584229  0.85841737  0.35551755    -0.25700
C392        C  0.64665520  0.87722618  0.38405553     0.06400
C393        C  0.66628424  0.89855668  0.35053293    -0.30600
O394        O  0.66643401  0.89168757  0.14907805    -0.22500
C395        C  0.64568989  0.87250390  0.12094932    -0.02500
C396        C  0.62239529  0.85548643  0.15449745    -0.16900
H397        H  0.59767192  0.83472679  0.26113188     0.21100
H398        H  0.69153278  0.91907964  0.24355011     0.19500
H399        H  0.68451662  0.91700424  0.36251506     0.19400
H400        H  0.60229239  0.83902358  0.14246331     0.15300
C401        C  0.60122125  0.70424170  0.98368200     0.30700
C402        C  0.59208751  0.67719646  0.95121809    -0.35600
C403        C  0.57708561  0.64971516  0.97920008     0.16700
C404        C  0.57161205  0.64869770  0.03542266     0.22500
C405        C  0.58096509  0.67570439  0.06804326    -0.33700
C406        C  0.59588542  0.70330832  0.03996970     0.16600
O407        O  0.61419546  0.73298942  0.96553399    -0.25700
C408        C  0.61742961  0.75073698  0.01077213     0.06400
C409        C  0.60651618  0.73351220  0.05845937    -0.30600
O410        O  0.55675153  0.62061408  0.05276120    -0.22500
C411        C  0.55253361  0.60352463  0.00694912    -0.02500
C412        C  0.56475838  0.62043701  0.96000900    -0.16900
H413        H  0.59588736  0.67778631  0.90697134     0.21100
H414        H  0.57650164  0.67541201  0.11207221     0.19500
H415        H  0.60545674  0.74224898  0.10016983     0.19400
H416        H  0.56455487  0.61230463  0.91784715     0.15300
C417        C  0.80941425  0.92512547  0.01870764     0.30700
C418        C  0.83762623  0.93190271  0.05064241    -0.35600
C419        C  0.86648343  0.94265708  0.02162547     0.16700
C420        C  0.86764619  0.94648193  0.96498926     0.22500
C421        C  0.83939583  0.93962155  0.93295136    -0.33700
C422        C  0.81044760  0.92884980  0.96202689     0.16600
O423        O  0.77975010  0.91518303  0.03754244    -0.25700
C424        C  0.76145428  0.91241095  0.99239203     0.06400
C425        C  0.77923241  0.92056995  0.94405986    -0.30600
O426        O  0.89721366  0.95726739  0.94663592    -0.22500
C427        C  0.91514356  0.96034797  0.99219031    -0.02500
C428        C  0.89728217  0.95160426  0.03999512    -0.16900
H429        H  0.83704755  0.92917974  0.09511302     0.21100
H430        H  0.83988881  0.94265196  0.88854371     0.19500
H431        H  0.77049772  0.92067449  0.90207350     0.19400
H432        H  0.90570956  0.95209553  0.08217900     0.15300
C433        C  0.53798434  0.00882172  0.47184883     0.30700
C434        C  0.51741324  0.02922427  0.43842589    -0.35600
C435        C  0.49767384  0.05285051  0.46579198     0.16700
C436        C  0.49812423  0.05621287  0.52219690     0.22500
C437        C  0.51888108  0.03598450  0.55556327    -0.33700
C438        C  0.53853862  0.01229301  0.52822645     0.16600
O439        O  0.55776987  0.98449386  0.45511164    -0.25700
C440        C  0.57114174  0.97219987  0.50142494     0.06400
C441        C  0.56011084  0.98855778  0.54824303    -0.30600
O442        O  0.47639617  0.07871111  0.53941814    -0.22500
C443        C  0.46188623  0.08998778  0.49340503    -0.02500
C444        C  0.47426662  0.07490104  0.44624188    -0.16900
H445        H  0.51640265  0.02645263  0.39428871     0.21100
H446        H  0.51915895  0.03808892  0.59988958     0.19500
H447        H  0.56669076  0.98360870  0.59077290     0.19400
H448        H  0.46640399  0.07860486  0.40403789     0.15300
C449        C  0.42068798  0.32144753  0.46267836     0.30700
C450        C  0.43075058  0.34931946  0.42965882    -0.35600
C451        C  0.44429077  0.37655752  0.45770307     0.16700
C452        C  0.44765309  0.37632270  0.51421755     0.22500
C453        C  0.43780363  0.34850021  0.54700700    -0.33700
C454        C  0.42431902  0.32139729  0.51912439     0.16600
O455        O  0.40641246  0.29363784  0.44573347    -0.25700
C456        C  0.40093367  0.27569162  0.49212046     0.06400
C457        C  0.41167609  0.29175483  0.53893737    -0.30600
O458        O  0.46035732  0.40450776  0.53212883    -0.22500
C459        C  0.46536796  0.42318747  0.48658475    -0.02500
C460        C  0.45587100  0.40708852  0.43894270    -0.16900
H461        H  0.42788325  0.34989101  0.38544601     0.21100
H462        H  0.44014571  0.34815450  0.59141494     0.19500
H463        H  0.40983661  0.28331570  0.58161361     0.19400
H464        H  0.45711370  0.41660076  0.39682421     0.15300
C465        C  0.20485516  0.08608288  0.47877408     0.30700
C466        C  0.17779524  0.07585181  0.44678314    -0.35600
C467        C  0.14930679  0.06427555  0.47595860     0.16700
C468        C  0.14747589  0.06283719  0.53276179     0.22500
C469        C  0.17453444  0.07315941  0.56481381    -0.33700
C470        C  0.20308643  0.08471163  0.53560227     0.16600
O471        O  0.23381334  0.09797071  0.45996770    -0.25700
C472        C  0.25086313  0.10428333  0.50532306     0.06400
C473        C  0.23302014  0.09650199  0.55369972    -0.30600
O474        O  0.11847407  0.05080662  0.55134344    -0.22500
C475        C  0.10156933  0.04449025  0.50579115    -0.02500
C476        C  0.11949048  0.05244789  0.45772572    -0.16900
H477        H  0.17888966  0.07682657  0.40219597     0.21100
H478        H  0.17343279  0.07218704  0.60936359     0.19500
H479        H  0.24069032  0.09939171  0.59585481     0.19400
H480        H  0.11173717  0.04964085  0.41550208     0.15300
C481        C  0.50858801  0.97856925  0.97759299     0.30700
C482        C  0.48648040  0.99734692  0.94427452    -0.35600
C483        C  0.46601590  0.02047576  0.97145091     0.16700
C484        C  0.46708065  0.02470447  0.02762826     0.22500
C485        C  0.48904773  0.00580023  0.06094979    -0.33700
C486        C  0.50959754  0.98278104  0.03377112     0.16600
O487        O  0.53089282  0.95656650  0.96054425    -0.25700
C488        C  0.54633329  0.94648177  0.00645181     0.06400
C489        C  0.53407084  0.96191494  0.05334579    -0.30600
O490        O  0.44646314  0.04837049  0.04425153    -0.22500
C491        C  0.43203821  0.05954122  0.99809810    -0.02500
C492        C  0.44318318  0.04305035  0.95145136    -0.16900
H493        H  0.48573965  0.99457209  0.90012589     0.21100
H494        H  0.49043390  0.00922109  0.10494460     0.19500
H495        H  0.54246047  0.95895717  0.09540732     0.19400
H496        H  0.43596734  0.04730778  0.90904116     0.15300
C497        C  0.35410826  0.17535073  0.69602095     0.30700
C498        C  0.34820785  0.19431226  0.74305006    -0.35600
C499        C  0.35178832  0.17721240  0.79391599     0.16700
C500        C  0.36070319  0.14384164  0.79812330     0.22500
C501        C  0.36553081  0.12461965  0.75113163    -0.33700
C502        C  0.36188049  0.14168645  0.70029729     0.16600
O503        O  0.35346394  0.18655581  0.64446611    -0.25700
C504        C  0.36085021  0.15973322  0.61516915     0.06400
C505        C  0.36572816  0.13095152  0.64784028    -0.30600
O506        O  0.36436765  0.13334181  0.84960044    -0.22500
C507        C  0.35773349  0.16026979  0.87903721    -0.02500
C508        C  0.34893742  0.18812166  0.84646712    -0.16900
H509        H  0.34193706  0.22070846  0.74017845     0.21100
H510        H  0.37235388  0.09837075  0.75401634     0.19500
H511        H  0.37156878  0.10587976  0.63474503     0.19400
H512        H  0.34191575  0.21288297  0.85958315     0.15300
C513        C  0.34105551  0.16258820  0.19711036     0.30700
C514        C  0.32233953  0.16798746  0.24544017    -0.35600
C515        C  0.34037286  0.16647099  0.29482336     0.16700
C516        C  0.37430244  0.15966549  0.29655415     0.22500
C517        C  0.39317839  0.15540289  0.24821197    -0.33700
C518        C  0.37525010  0.15720165  0.19891557     0.16600
O519        O  0.32935232  0.16216415  0.14646601    -0.25700
C520        C  0.35648938  0.15659532  0.11547098     0.06400
C521        C  0.38576988  0.15384483  0.14598587    -0.30600
O522        O  0.38564761  0.15709728  0.34723478    -0.22500
C523        C  0.35873728  0.16252362  0.37867719    -0.02500
C524        C  0.33002587  0.16944250  0.34809982    -0.16900
H525        H  0.29556633  0.17252965  0.24468289     0.21100
H526        H  0.41988653  0.15039472  0.24904607     0.19500
H527        H  0.41117879  0.15006840  0.13110507     0.19400
H528        H  0.30499195  0.17495472  0.36298592     0.15300
C529        C  0.42868382  0.31645678  0.97606592     0.30700
C530        C  0.43986146  0.34423606  0.94410899    -0.35600
C531        C  0.45226912  0.37143760  0.97326075     0.16700
C532        C  0.45362890  0.37140350  0.03001407     0.22500
C533        C  0.44246668  0.34360178  0.06202065    -0.33700
C534        C  0.43002337  0.31638215  0.03284422     0.16600
O535        O  0.41606542  0.28838802  0.95731115    -0.25700
C536        C  0.40920112  0.27005914  0.00269415     0.06400
C537        C  0.41735894  0.28622695  0.05095991    -0.30600
O538        O  0.46600665  0.39963866  0.04862281    -0.22500
C539        C  0.47265571  0.41798833  0.00314600    -0.02500
C540        C  0.46463864  0.40167226  0.95509507    -0.16900
H541        H  0.43888889  0.34464317  0.89957066     0.21100
H542        H  0.44333872  0.34324518  0.10653480     0.19500
H543        H  0.41445407  0.27722670  0.09315527     0.19400
H544        H  0.46741101  0.41085060  0.91293150     0.15300
C545        C  0.20129155  0.08585509  0.01996689     0.30700
C546        C  0.17487397  0.07220812  0.05213908    -0.35600
C547        C  0.14869535  0.05731260  0.02325363     0.16700
C548        C  0.14844581  0.05586311  0.96655065     0.22500
C549        C  0.17499771  0.06931476  0.93434797    -0.33700
C550        C  0.20116016  0.08431702  0.96325158     0.16600
O551        O  0.22777145  0.10184531  0.03837450    -0.25700
C552        C  0.24486519  0.11069131  0.99284394     0.06400
C553        C  0.22950122  0.10042841  0.94481072    -0.30600
O554        O  0.12078068  0.04191873  0.94811880    -0.22500
C555        C  0.10314030  0.03426567  0.99366901    -0.02500
C556        C  0.11935202  0.04318480  0.04158188    -0.16900
H557        H  0.17448231  0.07360737  0.09659454     0.21100
H558        H  0.17497172  0.06867864  0.88983988     0.19500
H559        H  0.23761826  0.10458340  0.90253483     0.19400
H560        H  0.11038203  0.04044218  0.08371167     0.15300
C561        C  0.96944954  0.48089214  0.53077776     0.30700
C562        C  0.99265075  0.49758415  0.56362248    -0.35600
C563        C  0.01420511  0.52042819  0.53574131     0.16700
C564        C  0.01304145  0.52626361  0.47948452     0.22500
C565        C  0.98995369  0.50959340  0.44681604    -0.33700
C566        C  0.96842234  0.48691893  0.47458275     0.16600
O567        O  0.94688547  0.45851641  0.54786409    -0.25700
C568        C  0.93132855  0.45024033  0.50185399     0.06400
C569        C  0.94370185  0.46714712  0.45506984    -0.30600
O570        O  0.03542569  0.54849456  0.46175508    -0.22500
C571        C  0.05118041  0.55715600  0.50718050    -0.02500
C572        C  0.03906460  0.54053860  0.55463311    -0.16900
H573        H  0.99378526  0.49312896  0.60765861     0.21100
H574        H  0.98883974  0.51402622  0.40266276     0.19500
H575        H  0.93578936  0.46519513  0.41274579     0.19400
H576        H  0.04732274  0.54277779  0.59660967     0.15300
C577        C  0.95173808  0.14398121  0.47605534     0.30700
C578        C  0.94084645  0.17100194  0.44253208    -0.35600
C579        C  0.92921917  0.19927302  0.47016985     0.16700
C580        C  0.92836855  0.20086029  0.52688631     0.22500
C581        C  0.93936983  0.17391778  0.56035217    -0.33700
C582        C  0.95095685  0.14567206  0.53273873     0.16600
O583        O  0.96331417  0.11496893  0.45907409    -0.25700
C584        C  0.97002273  0.09789437  0.50554071     0.06400
C585        C  0.96284780  0.11578242  0.55259485    -0.30600
O586        O  0.91591322  0.22941030  0.54409267    -0.22500
C587        C  0.90873433  0.24637621  0.49777915    -0.02500
C588        C  0.91652895  0.22889724  0.45042800    -0.16900
H589        H  0.94119907  0.16997425  0.39806369     0.21100
H590        H  0.93870351  0.17481613  0.60484167     0.19500
H591        H  0.96592305  0.10784935  0.59524341     0.19400
H592        H  0.91295306  0.23654937  0.40782659     0.15300
C593        C  0.69570291  0.42369196  0.46939018     0.30700
C594        C  0.67097310  0.43849239  0.43582454    -0.35600
C595        C  0.64305088  0.45192853  0.46333863     0.16700
C596        C  0.63967081  0.45084098  0.51997206     0.22500
C597        C  0.66435502  0.43601903  0.55349505    -0.33700
C598        C  0.69227308  0.42264507  0.52602983     0.16600
O599        O  0.72368892  0.40930328  0.45244353    -0.25700
C600        C  0.73838006  0.39896828  0.49889870     0.06400
C601        C  0.71994262  0.40657853  0.54599455    -0.30600
O602        O  0.61140824  0.46460340  0.53701431    -0.22500
C603        C  0.59643576  0.47472357  0.49072443    -0.02500
C604        C  0.61497060  0.46746552  0.44358766    -0.16900
H605        H  0.67327405  0.43935324  0.39137974     0.21100
H606        H  0.66190154  0.43487886  0.59794040     0.19500
H607        H  0.72576799  0.40085025  0.58862268     0.19400
H608        H  0.60850636  0.47260190  0.40100464     0.15300
C609        C  0.99723920  0.45233415  0.02234109     0.30700
C610        C  0.01810759  0.47167512  0.05522790    -0.35600
C611        C  0.03876831  0.49519963  0.02721424     0.16700
C612        C  0.03907053  0.49937413  0.97060658     0.22500
C613        C  0.01842283  0.47975950  0.93761924    -0.33700
C614        C  0.99762404  0.45629896  0.96569520     0.16600
O615        O  0.97480804  0.43006929  0.04020973    -0.25700
C616        C  0.96067963  0.41947019  0.99441071     0.06400
C617        C  0.97392694  0.43488171  0.94669838    -0.30600
O618        O  0.05919403  0.52396704  0.95332120    -0.22500
C619        C  0.07188852  0.53570646  0.99953647    -0.02500
C620        C  0.06017388  0.51861746  0.04677010    -0.16900
H621        H  0.01765582  0.46913949  0.09972508     0.21100
H622        H  0.01800770  0.48311283  0.89327417     0.19500
H623        H  0.96659889  0.43162210  0.90446262     0.19400
H624        H  0.06581228  0.52323474  0.08935011     0.15300
C625        C  0.85054711  0.33416421  0.80023492     0.30700
C626        C  0.84285266  0.31635325  0.75281273    -0.35600
C627        C  0.84587270  0.33438421  0.70245799     0.16700
C628        C  0.85626395  0.36739747  0.69911486     0.22500
C629        C  0.86304837  0.38539214  0.74646169    -0.33700
C630        C  0.85956390  0.36756990  0.79666924     0.16600
O631        O  0.85004925  0.32229430  0.85153554    -0.25700
C632        C  0.85866838  0.34855474  0.88113730     0.06400
C633        C  0.86417992  0.37751040  0.84906162    -0.30600
O634        O  0.85931758  0.37884781  0.64796531    -0.22500
C635        C  0.85057799  0.35300956  0.61773565    -0.02500
C636        C  0.84120542  0.32484124  0.64958404    -0.16900
H637        H  0.83539949  0.29023655  0.75497002     0.21100
H638        H  0.87090917  0.41140779  0.74425369     0.19500
H639        H  0.87066969  0.40233512  0.86249303     0.19400
H640        H  0.83321849  0.30058009  0.63566321     0.15300
C641        C  0.87329698  0.35402531  0.19923316     0.30700
C642        C  0.89129047  0.36109962  0.24693907    -0.35600
C643        C  0.87333303  0.35806878  0.29689820     0.16700
C644        C  0.83984453  0.34925804  0.29973717     0.22500
C645        C  0.82210774  0.34126758  0.25216307    -0.33700
C646        C  0.84023465  0.34373566  0.20227270     0.16600
O647        O  0.88473516  0.35649337  0.14807340    -0.25700
C648        C  0.85880970  0.34731008  0.11775400     0.06400
C649        C  0.83067802  0.33837462  0.14955717    -0.30600
O650        O  0.82784530  0.34877927  0.35064506    -0.22500
C651        C  0.85403873  0.35719619  0.38102544    -0.02500
C652        C  0.88317469  0.36256988  0.34967907    -0.16900
H653        H  0.91739786  0.36870577  0.24518609     0.21100
H654        H  0.79596011  0.33382188  0.25388936     0.19500
H655        H  0.80635718  0.33022268  0.13560388     0.19400
H656        H  0.90810044  0.36848159  0.36377940     0.15300
C657        C  0.95031167  0.13322596  0.02290401     0.30700
C658        C  0.93765296  0.15847514  0.05654566    -0.35600
C659        C  0.92461477  0.18695554  0.02912497     0.16700
C660        C  0.92406288  0.19038342  0.97243038     0.22500
C661        C  0.93683757  0.16518883  0.93876437    -0.33700
C662        C  0.94984606  0.13669562  0.96622560     0.16600
O663        O  0.96316639  0.10428451  0.03985743    -0.25700
C664        C  0.97113008  0.08901122  0.99344086     0.06400
C665        C  0.96336773  0.10799809  0.94633696    -0.30600
O666        O  0.90982606  0.21864280  0.95549848    -0.22500
C667        C  0.90118674  0.23354034  0.00197846    -0.02500
C668        C  0.90982398  0.21500319  0.04913730    -0.16900
H669        H  0.93764613  0.15593485  0.10103536     0.21100
H670        H  0.93632208  0.16747472  0.89431273     0.19500
H671        H  0.96690114  0.10144651  0.90372522     0.19400
H672        H  0.90528269  0.22088562  0.09181452     0.15300
C673        C  0.70596884  0.42608152  0.02646213     0.30700
C674        C  0.68009524  0.43860508  0.05975018    -0.35600
C675        C  0.65172921  0.45084650  0.03203406     0.16700
C676        C  0.64896245  0.45080648  0.97543816     0.22500
C677        C  0.67482422  0.43824503  0.94212668    -0.33700
C678        C  0.70321114  0.42601304  0.96984831     0.16600
O679        O  0.73463959  0.41328404  0.04373163    -0.25700
C680        C  0.75047166  0.40495836  0.99753871     0.06400
C681        C  0.73211239  0.41228284  0.95024019    -0.30600
O682        O  0.62016245  0.46339881  0.95828144    -0.22500
C683        C  0.60428108  0.47157884  0.00452236    -0.02500
C684        C  0.62271679  0.46432160  0.05165543    -0.16900
H685        H  0.68192690  0.43874007  0.10416129     0.21100
H686        H  0.67293451  0.43799078  0.89774846     0.19500
H687        H  0.73885556  0.40801049  0.90773379     0.19400
H688        H  0.61568577  0.46833007  0.09416805     0.15300
loop_ 
_geom_bond_atom_site_label_1 
_geom_bond_atom_site_label_2 
_geom_bond_distance 
_geom_bond_site_symmetry_2 
_ccdc_geom_bond_type 
C1            C3   1.537       .  S
C1            C5   1.542       .  S
C1            C4   1.542       .  S
C1          C648   1.514       .  S
C2            C6   1.528       .  S
C2            C8   1.539       .  S
C2            C7   1.538       .  S
C2          C632   1.509       .  S
C3           C11   1.380       .  A
C3            C6   1.386   1_554  A
C4           C15   1.381       .  A
C4            C7   1.393   1_554  A
C5           C19   1.383       .  A
C5            C8   1.409   1_554  A
C6            C9   1.376       .  A
C7           C13   1.379       .  A
C8           C16   1.381       .  A
C9           N10   1.359       .  A
C9           H22   1.081       .  S
N10          C11   1.359   1_556  A
N10         C680   1.437       .  S
C11          H12   1.083       .  S
C13          N14   1.359       .  A
C13          H23   1.080       .  S
N14          C15   1.359   1_556  A
N14         C616   1.440       .  S
C15          H21   1.083       .  S
C16          N17   1.354   1_556  A
C16          H18   1.082       .  S
N17          C19   1.357       .  A
N17         C667   1.439       .  S
C19          H20   1.083       .  S
C24          C26   1.531       .  S
C24          C28   1.541       .  S
C24          C27   1.538       .  S
C24         C651   1.513       .  S
C25          C29   1.534       .  S
C25          C31   1.540       .  S
C25          C30   1.539       .  S
C25         C635   1.511       .  S
C26          C34   1.376       .  A
C26          C29   1.387       .  A
C27          C38   1.376       .  A
C27          C30   1.394       .  A
C28          C42   1.383       .  A
C28          C31   1.408       .  A
C29          C32   1.379       .  A
C30          C36   1.381       .  A
C31          C39   1.381       .  A
C32          N33   1.359       .  A
C32          H45   1.082       .  S
N33          C34   1.359       .  A
N33         C587   1.437       .  S
C34          H35   1.082       .  S
C36          N37   1.357       .  A
C36          H46   1.081       .  S
N37          C38   1.359       .  A
N37         C568   1.437       .  S
C38          H44   1.081       .  S
C39          N40   1.356       .  A
C39          H41   1.083       .  S
N40          C42   1.355       .  A
N40         C600   1.440       .  S
C42          H43   1.082       .  S
C47          C49   1.531       .  S
C47          C51   1.543       .  S
C47          C50   1.537       .  S
C47         C520   1.508       .  S
C48          C52   1.540       .  S
C48          C54   1.537       .  S
C48          C53   1.541       .  S
C48         C507   1.511       .  S
C49          C57   1.376       .  A
C49          C52   1.387   1_554  A
C50          C61   1.380       .  A
C50          C53   1.391   1_554  A
C51          C65   1.385       .  A
C51          C54   1.407   1_554  A
C52          C55   1.383       .  A
C53          C59   1.381       .  A
C54          C62   1.379       .  A
C55          N56   1.361   1_556  A
C55          H68   1.083       .  S
N56          C57   1.359       .  A
N56         C536   1.440       .  S
C57          H58   1.080       .  S
C59          N60   1.360       .  A
C59          H69   1.081       .  S
N60          C61   1.359   1_556  A
N60         C491   1.440       .  S
C61          H67   1.082       .  S
C62          N63   1.355       .  A
C62          H64   1.082       .  S
N63          C65   1.357   1_556  A
N63         C552   1.440       .  S
C65          H66   1.083       .  S
C70          C72   1.540       .  S
C70          C74   1.529       .  S
C70          C73   1.538       .  S
C70         C504   1.511       .  S
C71          C75   1.538       .  S
C71          C77   1.538       .  S
C71          C76   1.540       .  S
C71         C523   1.511       .  S
C72          C80   1.379       .  A
C72          C75   1.406       .  A
C73          C84   1.379       .  A
C73          C76   1.393       .  A
C74          C88   1.376       .  A
C74          C77   1.387       .  A
C75          C78   1.385       .  A
C76          C82   1.379       .  A
C77          C85   1.380       .  A
C78          N79   1.355       .  A
C78          H91   1.083       .  S
N79          C80   1.356       .  A
N79         C456   1.440       .  S
C80          H81   1.080       .  S
C82          N83   1.360       .  A
C82          H92   1.080       .  S
N83          C84   1.359       .  A
N83         C443   1.439       .  S
C84          H90   1.082       .  S
C85          N86   1.359       .  A
C85          H87   1.080       .  S
N86          C88   1.358       .  A
N86         C472   1.437       .  S
C88          H89   1.084       .  S
C93          C95   1.541       .  S
C93          C97   1.539       .  S
C93          C96   1.533       .  S
C93         C395   1.507       .  S
C94          C98   1.539       .  S
C94         C100   1.536       .  S
C94          C99   1.542       .  S
C94         C379   1.510       .  S
C95         C103   1.380       .  A
C95          C98   1.394   1_554  A
C96         C107   1.378       .  A
C96          C99   1.390   1_554  A
C97         C111   1.379       .  A
C97         C100   1.392   1_554  A
C98         C101   1.379       .  A
C99         C105   1.382       .  A
C100        C108   1.379       .  A
C101        N102   1.360   1_556  A
C101        H114   1.082       .  S
N102        C103   1.360       .  A
N102        C408   1.440       .  S
C103        H104   1.081       .  S
C105        N106   1.359   1_556  A
C105        H115   1.081       .  S
N106        C107   1.360       .  A
N106        C488   1.440       .  S
C107        H113   1.082       .  S
C108        N109   1.360       .  A
C108        H110   1.083       .  S
N109        C111   1.360   1_556  A
N109        C424   1.439       .  S
C111        H112   1.080       .  S
C116        C118   1.539       .  S
C116        C120   1.533       .  S
C116        C119   1.540       .  S
C116        C376   1.509       .  S
C117        C121   1.542       .  S
C117        C123   1.543       .  S
C117        C122   1.534       .  S
C117        C392   1.510       .  S
C118        C126   1.380       .  A
C118        C121   1.392       .  A
C119        C130   1.380       .  A
C119        C122   1.391       .  A
C120        C134   1.377       .  A
C120        C123   1.393       .  A
C121        C124   1.382       .  A
C122        C128   1.378       .  A
C123        C131   1.381       .  A
C124        N125   1.360       .  A
C124        H137   1.080       .  S
N125        C126   1.360       .  A
N125        C347   1.441       .  S
C126        H127   1.083       .  S
C128        N129   1.359       .  A
C128        H138   1.083       .  S
N129        C130   1.360       .  A
N129        C440   1.439       .  S
C130        H136   1.080       .  S
C131        N132   1.360       .  A
C131        H133   1.079       .  S
N132        C134   1.358       .  A
N132        C363   1.439       .  S
C134        H135   1.082       .  S
C139        C141   1.539       .  S
C139        C143   1.552       .  S
C139        C142   1.539       .  S
C139        C283   1.515       .  S
C140        C144   1.539       .  S
C140        C146   1.538       .  S
C140        C145   1.535       .  S
C140        C296   1.511       .  S
C141        C149   1.384       .  A
C141        C144   1.389   1_556  A
C142        C153   1.382       .  A
C142        C145   1.391   1_556  A
C143        C157   1.385       .  A
C143        C146   1.398   1_556  A
C144        C147   1.380       .  A
C145        C151   1.376       .  A
C146        C154   1.381       .  A
C147        N148   1.359   1_554  A
C147        H160   1.079       .  S
N148        C149   1.361       .  A
N148        C331   1.443       .  S
C149        H150   1.082       .  S
C151        N152   1.361   1_554  A
C151        H161   1.082       .  S
N152        C153   1.362       .  A
N152        C619   1.441       .  S
C153        H159   1.081       .  S
C154        N155   1.357       .  A
C154        H156   1.081       .  S
N155        C157   1.357   1_554  A
N155        C312   1.440       .  S
C157        H158   1.078       .  S
C162        C164   1.544       .  S
C162        C166   1.534       .  S
C162        C165   1.535       .  S
C162        C280   1.508       .  S
C163        C167   1.538       .  S
C163        C169   1.547       .  S
C163        C168   1.533       .  S
C163        C299   1.513       .  S
C164        C172   1.383       .  A
C164        C167   1.393       .  A
C165        C176   1.379       .  A
C165        C168   1.390       .  A
C166        C180   1.378       .  A
C166        C169   1.394       .  A
C167        C170   1.379       .  A
C168        C174   1.376       .  A
C169        C177   1.382       .  A
C170        N171   1.360       .  A
C170        H183   1.082       .  S
N171        C172   1.361       .  A
N171        C251   1.442       .  S
C172        H173   1.081       .  S
C174        N175   1.359       .  A
C174        H184   1.081       .  S
N175        C176   1.359       .  A
N175        C571   1.436       .  S
C176        H182   1.083       .  S
C177        N178   1.360       .  A
C177        H179   1.077       .  S
N178        C180   1.357       .  A
N178        C264   1.440       .  S
C180        H181   1.083       .  S
O185        V193   1.905       .  S
O185        C195   1.265       .  A
O186        V193   1.903   1_645  S
O186        C196   1.265       .  A
O187        V193   1.908   1_545  S
O187        C197   1.265       .  A
O188        V193   1.907   1_655  S
O188        C198   1.265       .  A
O189        V194   1.898   1_655  S
O189        C198   1.264   1_554  A
O190        V194   1.900   1_545  S
O190        C197   1.264   1_554  A
O191        V194   1.906   1_645  S
O191        C196   1.265   1_554  A
O192        V194   1.906       .  S
O192        C195   1.265   1_554  A
V193        V194   2.088   1_556  T
C195        C328   1.476       .  S
C196        C664   1.474       .  S
C197        C555   1.474       .  S
C198        C427   1.472       .  S
O199        V207   1.901   1_655  S
O199        C209   1.265       .  A
O200        V207   1.905   1_565  S
O200        C210   1.265       .  A
O201        V207   1.903       .  S
O201        C211   1.264       .  A
O202        V207   1.903   1_665  S
O202        C212   1.265       .  A
O203        V208   1.901   1_665  S
O203        C212   1.264       .  A
O204        V208   1.899       .  S
O204        C211   1.264       .  A
O205        V208   1.902   1_565  S
O205        C210   1.264       .  A
O206        V208   1.905   1_655  S
O206        C209   1.264       .  A
V207        V208   2.088       .  T
C209        C584   1.472       .  S
C210        C267   1.472       .  S
C211        C475   1.469       .  S
C212        C360   1.471       .  S
O213        V221   1.902       .  S
O213        C223   1.265       .  A
O214        V221   1.906       .  S
O214        C224   1.265       .  A
O215        V221   1.907       .  S
O215        C225   1.265       .  A
O216        V221   1.908       .  S
O216        C226   1.265       .  A
O217        V222   1.903       .  S
O217        C226   1.265   1_556  A
O218        V222   1.901       .  S
O218        C225   1.264   1_556  A
O219        V222   1.903       .  S
O219        C224   1.265   1_556  A
O220        V222   1.902       .  S
O220        C223   1.264   1_556  A
V221        V222   2.088   1_554  T
C223        C683   1.470       .  S
C224        C315   1.475       .  S
C225        C539   1.474       .  S
C226        C411   1.475       .  S
O227        V235   1.903       .  S
O227        C237   1.265       .  A
O228        V235   1.903       .  S
O228        C238   1.264       .  A
O229        V235   1.909       .  S
O229        C239   1.265       .  A
O230        V235   1.905       .  S
O230        C240   1.265       .  A
O231        V236   1.904       .  S
O231        C240   1.264       .  A
O232        V236   1.903       .  S
O232        C239   1.265       .  A
O233        V236   1.907       .  S
O233        C238   1.266       .  A
O234        V236   1.908       .  S
O234        C237   1.265       .  A
V235        V236   2.088       .  T
C237        C248   1.476       .  S
C238        C603   1.475       .  S
C239        C344   1.477       .  S
C240        C459   1.474       .  S
C241        C246   1.380       .  A
C241        C242   1.407       .  A
C241        O247   1.322       .  A
C242        C243   1.406       .  A
C242        H253   1.082       .  S
C243        C252   1.365       .  A
C243        C244   1.381       .  A
C244        C245   1.404       .  A
C244        O250   1.321       .  A
C245        C246   1.404       .  A
C245        H254   1.083       .  S
C246        C249   1.363       .  A
O247        C248   1.333       .  A
C248        C249   1.392       .  A
C249        H255   1.083       .  S
O250        C251   1.332       .  A
C251        C252   1.395       .  A
C252        H256   1.081       .  S
C257        C262   1.380       .  A
C257        C258   1.406       .  A
C257        O263   1.321       .  A
C258        C259   1.405       .  A
C258        H269   1.082       .  S
C259        C268   1.365       .  A
C259        C260   1.380       .  A
C260        C261   1.403       .  A
C260        O266   1.319       .  A
C261        C262   1.403       .  A
C261        H270   1.082       .  S
C262        C265   1.361       .  A
O263        C264   1.332       .  A
C264        C265   1.393       .  A
C265        H271   1.081       .  S
O266        C267   1.331       .  A
C267        C268   1.393       .  A
C268        H272   1.082       .  S
C273        C278   1.380       .  A
C273        C274   1.399       .  A
C273        O279   1.317       .  A
C274        C275   1.400       .  A
C274        H285   1.083       .  S
C275        C284   1.355       .  A
C275        C276   1.377       .  A
C276        C277   1.406       .  A
C276        O282   1.321       .  A
C277        C278   1.406       .  A
C277        H286   1.082       .  S
C278        C281   1.362       .  A
O279        C280   1.329       .  A
C280        C281   1.395       .  A
C281        H287   1.082       .  S
O282        C283   1.335       .  A
C283        C284   1.393       .  A
C284        H288   1.077       .  S
C289        C294   1.379       .  A
C289        C290   1.400       .  A
C289        O295   1.314       .  A
C290        C291   1.399       .  A
C290        H301   1.082       .  S
C291        C300   1.358       .  A
C291        C292   1.377       .  A
C292        C293   1.406       .  A
C292        O298   1.319       .  A
C293        C294   1.405       .  A
C293        H302   1.082       .  S
C294        C297   1.364       .  A
O295        C296   1.329       .  A
C296        C297   1.394       .  A
C297        H303   1.082       .  S
O298        C299   1.334       .  A
C299        C300   1.392       .  A
C300        H304   1.077       .  S
C305        C310   1.381   1_556  A
C305        C306   1.404       .  A
C305        O311   1.319       .  A
C306        C307   1.403       .  A
C306        H317   1.082       .  S
C307        C316   1.362       .  A
C307        C308   1.380   1_556  A
C308        C309   1.407       .  A
C308        O314   1.322       .  A
C309        C310   1.406       .  A
C309        H318   1.082       .  S
C310        C313   1.366       .  A
O311        C312   1.331   1_556  A
C312        C313   1.394       .  A
C313        H319   1.082       .  S
O314        C315   1.333       .  A
C315        C316   1.391   1_554  A
C316        H320   1.083       .  S
C321        C326   1.380   1_554  A
C321        C322   1.403       .  A
C321        O327   1.321       .  A
C322        C323   1.404       .  A
C322        H333   1.082       .  S
C323        C332   1.361       .  A
C323        C324   1.380   1_554  A
C324        C325   1.407       .  A
C324        O330   1.324       .  A
C325        C326   1.407       .  A
C325        H334   1.082       .  S
C326        C329   1.365       .  A
O327        C328   1.331   1_554  A
C328        C329   1.394       .  A
C329        H335   1.082       .  S
O330        C331   1.333       .  A
C331        C332   1.394   1_556  A
C332        H336   1.082       .  S
C337        C342   1.380       .  A
C337        C338   1.406       .  A
C337        O343   1.323       .  A
C338        C339   1.406       .  A
C338        H349   1.082       .  S
C339        C348   1.365       .  A
C339        C340   1.381       .  A
C340        C341   1.405       .  A
C340        O346   1.321       .  A
C341        C342   1.404       .  A
C341        H350   1.083       .  S
C342        C345   1.363       .  A
O343        C344   1.333       .  A
C344        C345   1.392       .  A
C345        H351   1.083       .  S
O346        C347   1.332       .  A
C347        C348   1.395       .  A
C348        H352   1.082       .  S
C353        C358   1.380       .  A
C353        C354   1.404       .  A
C353        O359   1.319       .  A
C354        C355   1.403       .  A
C354        H365   1.082       .  S
C355        C364   1.363       .  A
C355        C356   1.381       .  A
C356        C357   1.404       .  A
C356        O362   1.319       .  A
C357        C358   1.403       .  A
C357        H366   1.082       .  S
C358        C361   1.363       .  A
O359        C360   1.331       .  A
C360        C361   1.392       .  A
C361        H367   1.082       .  S
O362        C363   1.331       .  A
C363        C364   1.393       .  A
C364        H368   1.081       .  S
C369        C374   1.379       .  A
C369        C370   1.400       .  A
C369        O375   1.316       .  A
C370        C371   1.400       .  A
C370        H381   1.083       .  S
C371        C380   1.357       .  A
C371        C372   1.379       .  A
C372        C373   1.406       .  A
C372        O378   1.321       .  A
C373        C374   1.406       .  A
C373        H382   1.082       .  S
C374        C377   1.363       .  A
O375        C376   1.329       .  A
C376        C377   1.394       .  A
C377        H383   1.082       .  S
O378        C379   1.333       .  A
C379        C380   1.391       .  A
C380        H384   1.081       .  S
C385        C390   1.379       .  A
C385        C386   1.401       .  A
C385        O391   1.317       .  A
C386        C387   1.401       .  A
C386        H397   1.083       .  S
C387        C396   1.357       .  A
C387        C388   1.379       .  A
C388        C389   1.404       .  A
C388        O394   1.319       .  A
C389        C390   1.404       .  A
C389        H398   1.082       .  S
C390        C393   1.361       .  A
O391        C392   1.330       .  A
C392        C393   1.394       .  A
C393        H399   1.081       .  S
O394        C395   1.332       .  A
C395        C396   1.391       .  A
C396        H400   1.082       .  S
C401        C406   1.381   1_556  A
C401        C402   1.403       .  A
C401        O407   1.319       .  A
C402        C403   1.403       .  A
C402        H413   1.083       .  S
C403        C412   1.362       .  A
C403        C404   1.380   1_556  A
C404        C405   1.407       .  A
C404        O410   1.322       .  A
C405        C406   1.406       .  A
C405        H414   1.082       .  S
C406        C409   1.365       .  A
O407        C408   1.331   1_556  A
C408        C409   1.395       .  A
C409        H415   1.081       .  S
O410        C411   1.333       .  A
C411        C412   1.391   1_554  A
C412        H416   1.083       .  S
C417        C422   1.381   1_554  A
C417        C418   1.403       .  A
C417        O423   1.318       .  A
C418        C419   1.402       .  A
C418        H429   1.083       .  S
C419        C428   1.360       .  A
C419        C420   1.380   1_554  A
C420        C421   1.406       .  A
C420        O426   1.321       .  A
C421        C422   1.406       .  A
C421        H430   1.082       .  S
C422        C425   1.365       .  A
O423        C424   1.330   1_554  A
C424        C425   1.395       .  A
C425        H431   1.081       .  S
O426        C427   1.332       .  A
C427        C428   1.391   1_556  A
C428        H432   1.082       .  S
C433        C438   1.381       .  A
C433        C434   1.404       .  A
C433        O439   1.320   1_545  A
C434        C435   1.404       .  A
C434        H445   1.082       .  S
C435        C444   1.362       .  A
C435        C436   1.381       .  A
C436        C437   1.404       .  A
C436        O442   1.320       .  A
C437        C438   1.404       .  A
C437        H446   1.082       .  S
C438        C441   1.362   1_545  A
O439        C440   1.332       .  A
C440        C441   1.393       .  A
C441        H447   1.082       .  S
O442        C443   1.331       .  A
C443        C444   1.394       .  A
C444        H448   1.082       .  S
C449        C454   1.380       .  A
C449        C450   1.408       .  A
C449        O455   1.323       .  A
C450        C451   1.408       .  A
C450        H461   1.081       .  S
C451        C460   1.366       .  A
C451        C452   1.381       .  A
C452        C453   1.401       .  A
C452        O458   1.319       .  A
C453        C454   1.401       .  A
C453        H462   1.083       .  S
C454        C457   1.358       .  A
O455        C456   1.334       .  A
C456        C457   1.392       .  A
C457        H463   1.083       .  S
O458        C459   1.330       .  A
C459        C460   1.394       .  A
C460        H464   1.082       .  S
C465        C470   1.381       .  A
C465        C466   1.402       .  A
C465        O471   1.318       .  A
C466        C467   1.402       .  A
C466        H477   1.083       .  S
C467        C476   1.360       .  A
C467        C468   1.380       .  A
C468        C469   1.404       .  A
C468        O474   1.320       .  A
C469        C470   1.404       .  A
C469        H478   1.082       .  S
C470        C473   1.363       .  A
O471        C472   1.330       .  A
C472        C473   1.394       .  A
C473        H479   1.081       .  S
O474        C475   1.331       .  A
C475        C476   1.390       .  A
C476        H480   1.083       .  S
C481        C486   1.380   1_556  A
C481        C482   1.405       .  A
C481        O487   1.320       .  A
C482        C483   1.405   1_565  A
C482        H493   1.082       .  S
C483        C492   1.364       .  A
C483        C484   1.381   1_556  A
C484        C485   1.404       .  A
C484        O490   1.320       .  A
C485        C486   1.404   1_545  A
C485        H494   1.083       .  S
C486        C489   1.363       .  A
O487        C488   1.332   1_556  A
C488        C489   1.393       .  A
C489        H495   1.082       .  S
O490        C491   1.331   1_554  A
C491        C492   1.394       .  A
C492        H496   1.082       .  S
C497        C502   1.379       .  A
C497        C498   1.405       .  A
C497        O503   1.319       .  A
C498        C499   1.403       .  A
C498        H509   1.083       .  S
C499        C508   1.363       .  A
C499        C500   1.379       .  A
C500        C501   1.404       .  A
C500        O506   1.317       .  A
C501        C502   1.403       .  A
C501        H510   1.082       .  S
C502        C505   1.362       .  A
O503        C504   1.332       .  A
C504        C505   1.392       .  A
C505        H511   1.082       .  S
O506        C507   1.331       .  A
C507        C508   1.393       .  A
C508        H512   1.082       .  S
C513        C518   1.380       .  A
C513        C514   1.405       .  A
C513        O519   1.321       .  A
C514        C515   1.405       .  A
C514        H525   1.082       .  S
C515        C524   1.362       .  A
C515        C516   1.379       .  A
C516        C517   1.401       .  A
C516        O522   1.317       .  A
C517        C518   1.401       .  A
C517        H526   1.083       .  S
C518        C521   1.358       .  A
O519        C520   1.332       .  A
C520        C521   1.391       .  A
C521        H527   1.083       .  S
O522        C523   1.330       .  A
C523        C524   1.394       .  A
C524        H528   1.081       .  S
C529        C534   1.381   1_556  A
C529        C530   1.404       .  A
C529        O535   1.321       .  A
C530        C531   1.404       .  A
C530        H541   1.083       .  S
C531        C540   1.362       .  A
C531        C532   1.380   1_556  A
C532        C533   1.405       .  A
C532        O538   1.321       .  A
C533        C534   1.405       .  A
C533        H542   1.082       .  S
C534        C537   1.363       .  A
O535        C536   1.331   1_556  A
C536        C537   1.395       .  A
C537        H543   1.082       .  S
O538        C539   1.332       .  A
C539        C540   1.392   1_554  A
C540        H544   1.082       .  S
C545        C550   1.381   1_554  A
C545        C546   1.404       .  A
C545        O551   1.320       .  A
C546        C547   1.403       .  A
C546        H557   1.083       .  S
C547        C556   1.361       .  A
C547        C548   1.380   1_554  A
C548        C549   1.405       .  A
C548        O554   1.321       .  A
C549        C550   1.405       .  A
C549        H558   1.082       .  S
C550        C553   1.363       .  A
O551        C552   1.331   1_554  A
C552        C553   1.395       .  A
C553        H559   1.081       .  S
O554        C555   1.332       .  A
C555        C556   1.392   1_556  A
C556        H560   1.083       .  S
C561        C566   1.381       .  A
C561        C562   1.406       .  A
C561        O567   1.321       .  A
C562        C563   1.406   1_655  A
C562        H573   1.081       .  S
C563        C572   1.364       .  A
C563        C564   1.381       .  A
C564        C565   1.400   1_455  A
C564        O570   1.317       .  A
C565        C566   1.400       .  A
C565        H574   1.084       .  S
C566        C569   1.358       .  A
O567        C568   1.333       .  A
C568        C569   1.390       .  A
C569        H575   1.083       .  S
O570        C571   1.329       .  A
C571        C572   1.395       .  A
C572        H576   1.081       .  S
C577        C582   1.380       .  A
C577        C578   1.405       .  A
C577        O583   1.321       .  A
C578        C579   1.404       .  A
C578        H589   1.082       .  S
C579        C588   1.362       .  A
C579        C580   1.381       .  A
C580        C581   1.403       .  A
C580        O586   1.319       .  A
C581        C582   1.402       .  A
C581        H590   1.082       .  S
C582        C585   1.361       .  A
O583        C584   1.332       .  A
C584        C585   1.391       .  A
C585        H591   1.083       .  S
O586        C587   1.331       .  A
C587        C588   1.393       .  A
C588        H592   1.082       .  S
C593        C598   1.380       .  A
C593        C594   1.406       .  A
C593        O599   1.321       .  A
C594        C595   1.405       .  A
C594        H605   1.082       .  S
C595        C604   1.364       .  A
C595        C596   1.380       .  A
C596        C597   1.404       .  A
C596        O602   1.320       .  A
C597        C598   1.403       .  A
C597        H606   1.083       .  S
C598        C601   1.362       .  A
O599        C600   1.332       .  A
C600        C601   1.393       .  A
C601        H607   1.082       .  S
O602        C603   1.332       .  A
C603        C604   1.392       .  A
C604        H608   1.083       .  S
C609        C614   1.381   1_554  A
C609        C610   1.404   1_655  A
C609        O615   1.320       .  A
C610        C611   1.404       .  A
C610        H621   1.083       .  S
C611        C620   1.362       .  A
C611        C612   1.380   1_554  A
C612        C613   1.406       .  A
C612        O618   1.322       .  A
C613        C614   1.406   1_455  A
C613        H622   1.082       .  S
C614        C617   1.365       .  A
O615        C616   1.331   1_554  A
C616        C617   1.395       .  A
C617        H623   1.081       .  S
O618        C619   1.333       .  A
C619        C620   1.394   1_556  A
C620        H624   1.081       .  S
C625        C630   1.379       .  A
C625        C626   1.406       .  A
C625        O631   1.321       .  A
C626        C627   1.406       .  A
C626        H637   1.082       .  S
C627        C636   1.364       .  A
C627        C628   1.379       .  A
C628        C629   1.401       .  A
C628        O634   1.316       .  A
C629        C630   1.400       .  A
C629        H638   1.083       .  S
C630        C633   1.358       .  A
O631        C632   1.333       .  A
C632        C633   1.391       .  A
C633        H639   1.083       .  S
O634        C635   1.330       .  A
C635        C636   1.394       .  A
C636        H640   1.082       .  S
C641        C646   1.379       .  A
C641        C642   1.404       .  A
C641        O647   1.320       .  A
C642        C643   1.404       .  A
C642        H653   1.083       .  S
C643        C652   1.361       .  A
C643        C644   1.379       .  A
C644        C645   1.405       .  A
C644        O650   1.320       .  A
C645        C646   1.405       .  A
C645        H654   1.082       .  S
C646        C649   1.362       .  A
O647        C648   1.332       .  A
C648        C649   1.394       .  A
C649        H655   1.082       .  S
O650        C651   1.332       .  A
C651        C652   1.394       .  A
C652        H656   1.081       .  S
C657        C662   1.380   1_554  A
C657        C658   1.404       .  A
C657        O663   1.320       .  A
C658        C659   1.404       .  A
C658        H669   1.083       .  S
C659        C668   1.363       .  A
C659        C660   1.381   1_554  A
C660        C661   1.405       .  A
C660        O666   1.320       .  A
C661        C662   1.404       .  A
C661        H670   1.082       .  S
C662        C665   1.363       .  A
O663        C664   1.331   1_554  A
C664        C665   1.392       .  A
C665        H671   1.082       .  S
O666        C667   1.332   1_556  A
C667        C668   1.393       .  A
C668        H672   1.082       .  S
C673        C678   1.381   1_554  A
C673        C674   1.403       .  A
C673        O679   1.319       .  A
C674        C675   1.403       .  A
C674        H685   1.082       .  S
C675        C684   1.361       .  A
C675        C676   1.380   1_554  A
C676        C677   1.404       .  A
C676        O682   1.320       .  A
C677        C678   1.403       .  A
C677        H686   1.082       .  S
C678        C681   1.362       .  A
O679        C680   1.331   1_554  A
C680        C681   1.393       .  A
C681        H687   1.082       .  S
O682        C683   1.331   1_556  A
C683        C684   1.391       .  A
C684        H688   1.083       .  S
