geometry optimzed in LAMMPS
_audit_creation_date              2020-11-30 
_audit_creation_method            'lammps2cif' 
_symmetry_space_group_name_H-M    'P1' 
_symmetry_Int_Tables_number       1 
_symmetry_cell_setting            triclinic 
loop_ 
_symmetry_equiv_pos_as_xyz 
  x,y,z 
_cell_length_a                    45.2313190525989 
_cell_length_b                    45.31823151145826 
_cell_length_c                    45.262572555786065 
_cell_angle_alpha                 89.96350329682386 
_cell_angle_beta                  90.00775744160491 
_cell_angle_gamma                 90.04669133741623 
loop_ 
_atom_site_label 
_atom_site_type_symbol 
_atom_site_fract_x 
_atom_site_fract_y 
_atom_site_fract_z 
_atom_site_charge 
N1          N  0.06124494  0.48667113  0.21378953    -0.07020
N2          N  0.07862182  0.47660312  0.19263533    -0.59140
N3          N  0.06092825  0.01550824  0.28171725    -0.06700
N4          N  0.07772838  0.02559741  0.30333041    -0.61270
N5          N  0.06086621  0.48648883  0.28171630    -0.06300
N6          N  0.07757336  0.47627235  0.30332924    -0.59120
N7          N  0.06091821  0.01571585  0.21361013    -0.05980
N8          N  0.07782991  0.02601963  0.19216515    -0.61620
C9          C  0.08847250  0.00137862  0.17918434     0.95150
C10         C  0.08789322  0.50088540  0.31676098     0.94930
N11         N  0.48254293  0.06467204  0.28147713    -0.07210
N12         N  0.47223927  0.08147266  0.30293807    -0.59720
N13         N  0.01177470  0.06484640  0.21362867    -0.05330
N14         N  0.02187021  0.08189795  0.19220457    -0.60970
N15         N  0.48271409  0.06470040  0.21361380    -0.07240
N16         N  0.47245921  0.08165475  0.19226021    -0.59990
N17         N  0.01161185  0.06460174  0.28172211    -0.04970
N18         N  0.02165988  0.08129145  0.30342894    -0.61060
Mn19       Mn  0.03699832  0.04084466  0.24767287     1.18440
C20         C  0.49686825  0.09159113  0.31660064     0.97230
C21         C  0.99707494  0.09220660  0.17896141     0.97900
N22         N  0.01161870  0.43739706  0.28169357    -0.07260
N23         N  0.02153870  0.42052304  0.30333453    -0.63570
N24         N  0.48257890  0.43750386  0.21381515    -0.06060
N25         N  0.47215479  0.42058091  0.19253157    -0.64240
N26         N  0.01166679  0.43746322  0.21357972    -0.06770
N27         N  0.02159466  0.42051096  0.19202275    -0.63830
N28         N  0.48254129  0.43757322  0.28157240    -0.05660
N29         N  0.47210339  0.42083666  0.30301269    -0.64520
Mn30       Mn  0.03705514  0.46130842  0.24766567     1.10660
C31         C  0.49660739  0.41036991  0.31653221     0.98460
C32         C  0.99668065  0.41014549  0.17901880     0.98530
N33         N  0.43361695  0.01546377  0.21327987    -0.06770
N34         N  0.41667492  0.02544127  0.19170451    -0.62150
N35         N  0.43359287  0.48657669  0.28162658    -0.06090
N36         N  0.41692285  0.47643807  0.30331811    -0.58880
N37         N  0.43336495  0.01558305  0.28132552    -0.07400
N38         N  0.41642969  0.02579372  0.30272828    -0.61710
N39         N  0.43338419  0.48644860  0.21371963    -0.06390
N40         N  0.41613892  0.47607713  0.19262809    -0.58900
Mn41       Mn  0.45740822  0.04075605  0.24738211     1.20190
Mn42       Mn  0.45740980  0.46140715  0.24769688     1.10090
Cl43       Cl  0.99725923  0.00108127  0.24756618    -0.86870
C44         C  0.40603714  0.00060776  0.17891411     0.95460
C45         C  0.40645561  0.50115003  0.31640127     0.95260
N46         N  0.48348282  0.21743487  0.06152553    -0.07020
N47         N  0.47351744  0.19589038  0.07843650    -0.59140
N48         N  0.01225218  0.28559924  0.06093410    -0.06700
N49         N  0.02244510  0.30730376  0.07752460    -0.61270
N50         N  0.48321585  0.28527593  0.06130316    -0.06300
N51         N  0.47303618  0.30672819  0.07815454    -0.59120
N52         N  0.01249636  0.21763580  0.06134661    -0.05980
N53         N  0.02289423  0.19616515  0.07810441    -0.61620
C54         C  0.99830951  0.18269001  0.08856901     0.95150
C55         C  0.49773189  0.32042161  0.08804394     0.94930
N56         N  0.06108956  0.28479329  0.48221857    -0.07210
N57         N  0.07793724  0.30608612  0.47160811    -0.59720
N58         N  0.06111441  0.21736985  0.01184338    -0.05330
N59         N  0.07811306  0.19600772  0.02206893    -0.60970
N60         N  0.06087306  0.21708363  0.48279325    -0.07240
N61         N  0.07779120  0.19564765  0.47266762    -0.59990
N62         N  0.06094238  0.28543651  0.01126630    -0.04970
N63         N  0.07754419  0.30733415  0.02103850    -0.61060
Mn64       Mn  0.03739425  0.25156211  0.03702135     1.18440
C65         C  0.08787869  0.32010265  0.49604448     0.97230
C66         C  0.08829645  0.18252231  0.49740128     0.97900
N67         N  0.43352815  0.28501374  0.01274613    -0.07260
N68         N  0.41640953  0.30616008  0.02316698    -0.63570
N69         N  0.43341084  0.21740030  0.48369241    -0.06060
N70         N  0.41649090  0.19591149  0.47362487    -0.64240
N71         N  0.43389196  0.21711470  0.01273363    -0.06770
N72         N  0.41737751  0.19536704  0.02300996    -0.63830
N73         N  0.43353871  0.28536078  0.48368047    -0.05660
N74         N  0.41650706  0.30684397  0.47373851    -0.64520
Mn75       Mn  0.45787822  0.25116221  0.03774379     1.10660
C76         C  0.40607242  0.31976009  0.49860140     0.98460
C77         C  0.40674558  0.18222177  0.49837491     0.98530
N78         N  0.01107120  0.21687416  0.43389766    -0.06770
N79         N  0.02082698  0.19532406  0.41685748    -0.62150
N80         N  0.48250194  0.28516103  0.43403721    -0.06090
N81         N  0.47244590  0.30689260  0.41741166    -0.58880
N82         N  0.01157810  0.28482681  0.43375659    -0.07400
N83         N  0.02188467  0.30635633  0.41702967    -0.61710
N84         N  0.48201272  0.21731174  0.43400970    -0.06390
N85         N  0.47142755  0.19613630  0.41702421    -0.58900
Mn86       Mn  0.03680870  0.25079625  0.45749470     1.20190
Mn87       Mn  0.45718386  0.25136537  0.45819007     1.10090
Cl88       Cl  0.99732083  0.25120654  0.49760508    -0.86870
C89         C  0.99582967  0.18251250  0.40648330     0.95460
C90         C  0.49725541  0.32006698  0.40703372     0.95260
N91         N  0.28107040  0.43731972  0.48406824    -0.07020
N92         N  0.30254344  0.42010067  0.47442345    -0.59140
N93         N  0.21216605  0.43771361  0.01166836    -0.06700
N94         N  0.19048492  0.42061655  0.02116641    -0.61270
N95         N  0.21326020  0.43748721  0.48261908    -0.06300
N96         N  0.19251729  0.42014243  0.47176618    -0.59120
N97         N  0.28012533  0.43703441  0.01313098    -0.05980
N98         N  0.30085754  0.41954746  0.02381856    -0.61620
C99         C  0.31474593  0.40916210  0.49945664     0.95150
C100        C  0.17842033  0.40983276  0.49599939     0.94930
N101        N  0.21203333  0.01586364  0.06114509    -0.07210
N102        N  0.19062761  0.02619619  0.07808061    -0.59720
N103        N  0.27957396  0.48614399  0.06239477    -0.05330
N104        N  0.30035341  0.47560930  0.07991279    -0.60970
N105        N  0.28024710  0.01516757  0.06219240    -0.07240
N106        N  0.30167662  0.02496205  0.07944210    -0.59990
N107        N  0.21184288  0.48681904  0.06124412    -0.04970
N108        N  0.19053597  0.47678142  0.07847186    -0.61060
Mn109      Mn  0.24584984  0.46130030  0.03774424     1.18440
C110        C  0.17729301  0.00156183  0.08844274     0.97230
C111        C  0.31402582  0.50002344  0.09035222     0.97900
N112        N  0.21392015  0.48680661  0.43374494    -0.07260
N113        N  0.19230240  0.47690505  0.41679646    -0.63570
N114        N  0.28180813  0.01565045  0.43467478    -0.06060
N115        N  0.30283306  0.02606760  0.41740066    -0.64240
N116        N  0.28208215  0.48664145  0.43467426    -0.06770
N117        N  0.30343114  0.47672153  0.41741906    -0.63830
N118        N  0.21403188  0.01581765  0.43397802    -0.05660
N119        N  0.19262351  0.02623132  0.41716322    -0.64520
Mn120      Mn  0.24767477  0.46141066  0.45811926     1.10660
C121        C  0.17912895  0.00176353  0.40661081     0.98460
C122        C  0.31622658  0.50160308  0.40681883     0.98530
N123        N  0.28149455  0.06455033  0.01285027    -0.06770
N124        N  0.30289521  0.08170618  0.02292377    -0.62150
N125        N  0.21379079  0.06494717  0.48300559    -0.06090
N126        N  0.19282130  0.08215939  0.47239564    -0.58880
N127        N  0.21333021  0.06505390  0.01203756    -0.07400
N128        N  0.19189901  0.08226894  0.02177796    -0.61710
N129        N  0.28150359  0.06446843  0.48380579    -0.06390
N130        N  0.30274232  0.08154908  0.47353321    -0.58900
Mn131      Mn  0.24681884  0.04083223  0.03775775     1.20190
Mn132      Mn  0.24777331  0.04078699  0.45829318     1.10090
Cl133      Cl  0.24704679  0.00106971  0.49799959    -0.86870
C134        C  0.31599647  0.09214503  0.49810196     0.95460
C135        C  0.17924284  0.09278027  0.49678840     0.95050
C136        C  0.33896805  0.38717062  0.49993926    -0.06370
C137        C  0.35684883  0.38347815  0.47483999    -0.33800
C138        C  0.37926244  0.36216228  0.47429880     0.35450
C139        C  0.38395081  0.34382888  0.49903718    -0.06730
C140        C  0.36645732  0.34791422  0.02434704    -0.33700
C141        C  0.34401679  0.36914608  0.02487773     0.35360
H142        H  0.35349511  0.39720477  0.45552189     0.15730
O143        O  0.39637674  0.35946847  0.44943647    -0.61200
H144        H  0.36955991  0.33399316  0.04356684     0.15740
O145        O  0.32669027  0.37145962  0.04963455    -0.61290
H146        H  0.31010388  0.35752919  0.04638437     0.42740
H147        H  0.41371395  0.37239086  0.45295056     0.42690
C148        C  0.38493035  0.15784505  0.49830251    -0.06370
C149        C  0.36817429  0.15273487  0.47272880    -0.33800
C150        C  0.34589080  0.13136752  0.47232967     0.35450
C151        C  0.34018551  0.11420163  0.49773112    -0.06730
C152        C  0.35737190  0.11883545  0.02313883    -0.33700
C153        C  0.37970471  0.14030917  0.02351661     0.35360
H154        H  0.37171991  0.16595811  0.45309331     0.15730
O155        O  0.32935812  0.12807768  0.44713631    -0.61200
H156        H  0.35352008  0.10575859  0.04281520     0.15740
O157        O  0.39612764  0.14400032  0.04872027    -0.61290
H158        H  0.41358865  0.13104795  0.04615918     0.42740
H159        H  0.31269399  0.14210533  0.44930874     0.42690
C160        C  0.15438918  0.38777994  0.49517659    -0.06370
C161        C  0.13366574  0.38666341  0.51822700    -0.33800
C162        C  0.11129239  0.36528521  0.51836100     0.35450
C163        C  0.10970404  0.34431249  0.49546252    -0.06730
C164        C  0.13008928  0.34577596  0.47216669    -0.33700
C165        C  0.15231861  0.36723179  0.47189345     0.35360
H166        H  0.13473220  0.40249448  0.53612739     0.15730
O167        O  0.09104501  0.36518916  0.54089522    -0.61200
H168        H  0.12940105  0.32964257  0.45451932     0.15740
O169        O  0.17298739  0.36670534  0.44972672    -0.61290
H170        H  0.16367702  0.37726866  0.43291186     0.42740
H171        H  0.07420211  0.37704184  0.03348905     0.42690
C172        C  0.11025300  0.15829813  0.49724811    -0.06370
C173        C  0.12566426  0.15202002  0.47107966    -0.33800
C174        C  0.14776787  0.13046585  0.47043160     0.35450
C175        C  0.15490637  0.11463179  0.49631774    -0.06730
C176        C  0.13901735  0.12042927  0.02232664    -0.33700
C177        C  0.11690500  0.14204803  0.02296599     0.35360
H178        H  0.12108134  0.16433550  0.45107517     0.15730
O179        O  0.16309817  0.12610058  0.44466212    -0.61200
H180        H  0.14383165  0.10826886  0.04237292     0.15740
O181        O  0.10159682  0.14663755  0.04870624    -0.61290
H182        H  0.11441483  0.15968998  0.06077731     0.42740
H183        H  0.15095374  0.11198705  0.43309557     0.42690
C184        C  0.38465334  0.50134984  0.34073797    -0.06370
C185        C  0.36734076  0.02661867  0.34522410    -0.33800
C186        C  0.34515395  0.02703764  0.36669399     0.35450
C187        C  0.34018801  0.50201040  0.38457871    -0.06730
C188        C  0.35784982  0.47687744  0.38047047    -0.33700
C189        C  0.38003841  0.47645674  0.35888171     0.35360
H190        H  0.37037951  0.04593899  0.33143896     0.15730
O191        O  0.32796653  0.05181577  0.36936623    -0.61200
H192        H  0.35450338  0.45747824  0.39407396     0.15740
O193        O  0.39697977  0.45157500  0.35572209    -0.61290
H194        H  0.41449545  0.45487926  0.36846655     0.42740
H195        H  0.31120962  0.04871791  0.35559523     0.42690
C196        C  0.15433995  0.00205666  0.38513442    -0.06370
C197        C  0.14071668  0.47538493  0.37708173    -0.33800
C198        C  0.11859223  0.47465268  0.35542478     0.35450
C199        C  0.10960646  0.50095486  0.34133692    -0.06730
C200        C  0.12254288  0.02773197  0.35010643    -0.33700
C201        C  0.14459888  0.02847942  0.37177748     0.35360
H202        H  0.14746278  0.45485487  0.38732962     0.15730
O203        O  0.10582141  0.44809744  0.34843429    -0.61200
H204        H  0.11600437  0.04825482  0.33971165     0.15740
O205        O  0.15718772  0.05510612  0.37880666    -0.61290
H206        H  0.14434598  0.06353918  0.39442912     0.42740
H207        H  0.11957497  0.43869343  0.33420545     0.42690
C208        C  0.11104179  0.00157925  0.15588573    -0.06370
C209        C  0.10332712  0.00889474  0.12678068    -0.33800
C210        C  0.12482573  0.00899988  0.10444768     0.35450
C211        C  0.15425035  0.00167402  0.11126787    -0.06730
C212        C  0.16192084  0.99448423  0.14038332    -0.33700
C213        C  0.14054375  0.99462578  0.16270555     0.35360
H214        H  0.08061754  0.01423858  0.12136313     0.15730
O215        O  0.11674575  0.01527283  0.07592656    -0.61200
H216        H  0.18460792  0.98906831  0.14584589     0.15740
O217        O  0.14868784  0.98814466  0.19117259    -0.61290
H218        H  0.15337813  0.00744388  0.20032627     0.42740
H219        H  0.11916690  0.03695046  0.07390764     0.42690
C220        C  0.38365326  0.00018854  0.15513548    -0.06370
C221        C  0.36394979  0.47632756  0.15336627    -0.33800
C222        C  0.34139684  0.47588370  0.13223333     0.35450
C223        C  0.33826156  0.49956830  0.11227449    -0.06730
C224        C  0.35821135  0.02328726  0.11376572    -0.33700
C225        C  0.38091047  0.02362231  0.13484427     0.35360
H226        H  0.36547031  0.45826025  0.16898421     0.15730
O227        O  0.32151177  0.45301497  0.13247009    -0.61200
H228        H  0.35631547  0.04155693  0.09842864     0.15740
O229        O  0.40030286  0.04689882  0.13532518    -0.61290
H230        H  0.41714857  0.04063711  0.12282326     0.42740
H231        H  0.33125374  0.43683974  0.12135811     0.42690
C232        C  0.49652779  0.11331994  0.34107738    -0.06370
C233        C  0.47027123  0.12856323  0.34741622    -0.33800
C234        C  0.46959378  0.15080916  0.36883093     0.35450
C235        C  0.99541553  0.15803973  0.38473587    -0.06730
C236        C  0.02149086  0.14222594  0.37898318    -0.33700
C237        C  0.02215417  0.11995805  0.35753014     0.35360
H238        H  0.45025297  0.12384374  0.33514632     0.15730
O239        O  0.44363022  0.16571526  0.37347400    -0.61200
H240        H  0.04155727  0.14719740  0.39107509     0.15740
O241        O  0.04810878  0.10510378  0.35268936    -0.61290
H242        H  0.04723300  0.08764326  0.36586866     0.42740
H243        H  0.44382612  0.18217608  0.35903525     0.42690
C244        C  0.49727300  0.34473922  0.38551540    -0.06370
C245        C  0.47042714  0.35391713  0.37296377    -0.33800
C246        C  0.46973415  0.37572868  0.35109608     0.35450
C247        C  0.49627938  0.38882230  0.34119234    -0.06730
C248        C  0.02306161  0.38034765  0.35442701    -0.33700
C249        C  0.02374515  0.35852080  0.37633296     0.35360
H250        H  0.44980332  0.34373877  0.37964977     0.15730
O251        O  0.44302360  0.38316775  0.33885319    -0.61200
H252        H  0.04369391  0.39036006  0.34751678     0.15740
O253        O  0.05040193  0.35104421  0.38868324    -0.61290
H254        H  0.05942854  0.33680310  0.37471086     0.42740
H255        H  0.43479442  0.39859692  0.35202544     0.42690
C256        C  0.99635411  0.38851901  0.15446635    -0.06370
C257        C  0.02264972  0.38221039  0.13923535    -0.33800
C258        C  0.02332628  0.36078606  0.11694922     0.35450
C259        C  0.49748620  0.34487859  0.10976542    -0.06730
C260        C  0.47104625  0.35174804  0.12446107    -0.33700
C261        C  0.47027412  0.37332860  0.14651815     0.35360
H262        H  0.04287307  0.39382185  0.14468389     0.15730
O263        O  0.04946349  0.35543699  0.10260171    -0.61200
H264        H  0.45088584  0.33987039  0.11936844     0.15740
O265        O  0.44414273  0.37832132  0.16103674    -0.61290
H266        H  0.43338594  0.39285493  0.14865555     0.42740
H267        H  0.04970119  0.36948904  0.08581913     0.42690
C268        C  0.99830250  0.15808624  0.11017724    -0.06370
C269        C  0.47138166  0.14860499  0.12233015    -0.33800
C270        C  0.47052176  0.12674448  0.14413225     0.35450
C271        C  0.99699416  0.11394010  0.15445024    -0.06730
C272        C  0.02390182  0.12281694  0.14172999    -0.33700
C273        C  0.02471308  0.14452266  0.11970399     0.35360
H274        H  0.45076617  0.15854813  0.11531783     0.15730
O275        O  0.44367221  0.11895923  0.15586697    -0.61200
H276        H  0.04452795  0.11313113  0.14906405     0.15740
O277        O  0.05154598  0.15264726  0.10817254    -0.61290
H278        H  0.05481451  0.13914389  0.09125769     0.42740
H279        H  0.43595213  0.10328231  0.14265634     0.42690
N280        N  0.06124229  0.48666840  0.71379039    -0.07020
N281        N  0.07861773  0.47659976  0.69263539    -0.59140
N282        N  0.06092673  0.01550240  0.78172072    -0.06700
N283        N  0.07772832  0.02558957  0.80333342    -0.61270
N284        N  0.06086675  0.48648278  0.78171699    -0.06300
N285        N  0.07757429  0.47626421  0.80332868    -0.59120
N286        N  0.06091767  0.01571328  0.71361334    -0.05980
N287        N  0.07783119  0.02601645  0.69216909    -0.61620
C288        C  0.08847124  0.00137493  0.67918627     0.95150
C289        C  0.08789496  0.50087615  0.81676215     0.94930
N290        N  0.48252622  0.06467014  0.78147310    -0.07210
N291        N  0.47221814  0.08146645  0.80293553    -0.59720
N292        N  0.01177528  0.06484164  0.71364082    -0.05330
N293        N  0.02187366  0.08188851  0.69221582    -0.60970
N294        N  0.48269683  0.06469860  0.71360971    -0.07240
N295        N  0.47243752  0.08164928  0.69225530    -0.59990
N296        N  0.01161200  0.06460187  0.78173362    -0.04970
N297        N  0.02165926  0.08129549  0.80343904    -0.61060
Mn298      Mn  0.03699795  0.04084145  0.74768092     1.18440
C299        C  0.49684445  0.09158980  0.81659903     0.97230
C300        C  0.99708017  0.09219705  0.67897113     0.97900
N301        N  0.01161660  0.43739670  0.78168985    -0.07260
N302        N  0.02153731  0.42052405  0.80333087    -0.63570
N303        N  0.48259447  0.43750185  0.71381133    -0.06060
N304        N  0.47217434  0.42057383  0.69253010    -0.64240
N305        N  0.01166117  0.43746180  0.71357640    -0.06770
N306        N  0.02158751  0.42050828  0.69201932    -0.63830
N307        N  0.48255837  0.43757237  0.78156850    -0.05660
N308        N  0.47212523  0.42083385  0.80300950    -0.64520
Mn309      Mn  0.03705254  0.46130580  0.74766409     1.10660
C310        C  0.49663182  0.41037123  0.81652758     0.98460
C311        C  0.99667315  0.41014210  0.67901587     0.98530
N312        N  0.43361350  0.01545027  0.71327729    -0.06770
N313        N  0.41667073  0.02542495  0.69170154    -0.62150
N314        N  0.43359586  0.48656373  0.78162428    -0.06090
N315        N  0.41692677  0.47642285  0.80331586    -0.58880
N316        N  0.43336166  0.01557001  0.78132209    -0.07400
N317        N  0.41642383  0.02577832  0.80272371    -0.61710
N318        N  0.43338665  0.48643508  0.71371647    -0.06390
N319        N  0.41614425  0.47606064  0.69262389    -0.58900
Mn320      Mn  0.45739809  0.04074811  0.74737851     1.20190
Mn321      Mn  0.45741925  0.46139940  0.74769360     1.10090
Cl322      Cl  0.99725628  0.00108076  0.74756933    -0.86870
C323        C  0.40603850  0.00058986  0.67891015     0.95460
C324        C  0.40645406  0.50113364  0.81639746     0.95260
N325        N  0.48347344  0.21744349  0.56152910    -0.07020
N326        N  0.47349948  0.19590297  0.57844082    -0.59140
N327        N  0.01228475  0.28557571  0.56094808    -0.06700
N328        N  0.02246614  0.30729211  0.57753077    -0.61270
N329        N  0.48322975  0.28528333  0.56129741    -0.06300
N330        N  0.47305791  0.30674006  0.57814690    -0.59120
N331        N  0.01254772  0.21760813  0.56136137    -0.05980
N332        N  0.02294354  0.19614232  0.57812668    -0.61620
C333        C  0.99835528  0.18266398  0.58858195     0.95150
C334        C  0.49775847  0.32041504  0.58804807     0.94930
N335        N  0.06107042  0.28480447  0.98221824    -0.07210
N336        N  0.07792916  0.30608989  0.97160941    -0.59720
N337        N  0.06114771  0.21736394  0.51184456    -0.05330
N338        N  0.07813750  0.19599697  0.52207095    -0.60970
N339        N  0.06084178  0.21709139  0.98279243    -0.07240
N340        N  0.07776978  0.19566198  0.97266618    -0.59990
N341        N  0.06096288  0.28542637  0.51126710    -0.04970
N342        N  0.07755516  0.30733201  0.52103705    -0.61060
Mn343      Mn  0.03743243  0.25154576  0.53703021     1.18440
C344        C  0.08787558  0.32010135  0.99604721     0.97230
C345        C  0.08827968  0.18253687  0.99739886     0.97900
N346        N  0.43353389  0.28502261  0.51273486    -0.07260
N347        N  0.41641437  0.30617159  0.52314747    -0.63570
N348        N  0.43340120  0.21741356  0.98368200    -0.06060
N349        N  0.41647910  0.19592908  0.97360754    -0.64240
N350        N  0.43388736  0.21712384  0.51274426    -0.06770
N351        N  0.41736735  0.19538327  0.52302806    -0.63830
N352        N  0.43354399  0.28537406  0.98369191    -0.05660
N353        N  0.41651895  0.30686577  0.97375861    -0.64520
Mn354      Mn  0.45787856  0.25118213  0.53774302     1.10660
C355        C  0.40607830  0.31976711  0.99862611     0.98460
C356        C  0.40674586  0.18222159  0.99835301     0.98530
N357        N  0.01102857  0.21689744  0.93391007    -0.06770
N358        N  0.02078841  0.19534211  0.91687879    -0.62150
N359        N  0.48251054  0.28517234  0.93404019    -0.06090
N360        N  0.47246356  0.30690915  0.91741683    -0.58880
N361        N  0.01154966  0.28484699  0.93376246    -0.07400
N362        N  0.02186548  0.30636958  0.91703289    -0.61710
N363        N  0.48199696  0.21732308  0.93400130    -0.06390
N364        N  0.47140420  0.19615208  0.91701393    -0.58900
Mn365      Mn  0.03677488  0.25081263  0.95749995     1.20190
Mn366      Mn  0.45717922  0.25138868  0.95818801     1.10090
Cl367      Cl  0.99727340  0.25124392  0.99760122    -0.86870
C368        C  0.99579547  0.18253035  0.90649712     0.95460
C369        C  0.49727800  0.32006527  0.90702854     0.95260
N370        N  0.28107324  0.43731940  0.98407998    -0.07020
N371        N  0.30254904  0.42010111  0.97443968    -0.59140
N372        N  0.21216557  0.43771204  0.51166029    -0.06700
N373        N  0.19048425  0.42061525  0.52115773    -0.61270
N374        N  0.21326230  0.43748519  0.98262725    -0.06300
N375        N  0.19252092  0.42013814  0.97177515    -0.59120
N376        N  0.28012437  0.43703054  0.51311927    -0.05980
N377        N  0.30085559  0.41953975  0.52380233    -0.61620
C378        C  0.31475081  0.40916761  0.99947570     0.95150
C379        C  0.17842294  0.40983030  0.99600845     0.94930
N380        N  0.21203328  0.01585326  0.56114742    -0.07210
N381        N  0.19062733  0.02618420  0.57808365    -0.59720
N382        N  0.27957427  0.48613271  0.56239231    -0.05330
N383        N  0.30035434  0.47559559  0.57990808    -0.60970
N384        N  0.28024690  0.01515626  0.56219470    -0.07240
N385        N  0.30167672  0.02494849  0.57944506    -0.59990
N386        N  0.21184274  0.48680866  0.56124319    -0.04970
N387        N  0.19053532  0.47676935  0.57846955    -0.61060
Mn388      Mn  0.24584988  0.46129325  0.53773844     1.18440
C389        C  0.17729218  0.00154897  0.58844298     0.97230
C390        C  0.31402652  0.50000843  0.59035079     0.97900
N391        N  0.21392172  0.48679844  0.93374672    -0.07260
N392        N  0.19230458  0.47689494  0.91679838    -0.63570
N393        N  0.28180808  0.01564328  0.93467307    -0.06060
N394        N  0.30283248  0.02605790  0.91739666    -0.64240
N395        N  0.28208359  0.48663421  0.93467760    -0.06770
N396        N  0.30343236  0.47671194  0.91742336    -0.63830
N397        N  0.21403199  0.01580954  0.93397682    -0.05660
N398        N  0.19262416  0.02622116  0.91716047    -0.64520
Mn399      Mn  0.24767692  0.46140611  0.95812560     1.10660
C400        C  0.17913052  0.00175243  0.90660971     0.98460
C401        C  0.31622677  0.50159198  0.90681849     0.98530
N402        N  0.28149495  0.06454567  0.51286090    -0.06770
N403        N  0.30289352  0.08170192  0.52293806    -0.62150
N404        N  0.21378610  0.06495045  0.98299705    -0.06090
N405        N  0.19281575  0.08216275  0.97238673    -0.58880
N406        N  0.21333361  0.06504758  0.51204596    -0.07400
N407        N  0.19190222  0.08226122  0.52178723    -0.61710
N408        N  0.28150179  0.06446925  0.98379521    -0.06390
N409        N  0.30274126  0.08154678  0.97351887    -0.58900
Mn410      Mn  0.24681957  0.04082397  0.53776387     1.20190
Mn411      Mn  0.24777139  0.04078397  0.95828765     1.10090
Cl412      Cl  0.24704648  0.00107166  0.99799965    -0.86870
C413        C  0.31599747  0.09214500  0.99808534     0.95460
C414        C  0.17923759  0.09278673  0.99677924     0.95050
C415        C  0.33897633  0.38717996  0.99996384    -0.06370
C416        C  0.35686493  0.38349384  0.97486965    -0.33800
C417        C  0.37927993  0.36217984  0.97433106     0.35450
C418        C  0.38396136  0.34384035  0.99906655    -0.06730
C419        C  0.36645263  0.34790728  0.52432100    -0.33700
C420        C  0.34401311  0.36913955  0.52485399     0.35360
H421        H  0.35351568  0.39722358  0.95555298     0.15730
O422        O  0.39640116  0.35949244  0.94947278    -0.61200
H423        H  0.36955994  0.33399013  0.54354288     0.15740
O424        O  0.32669308  0.37145729  0.54961496    -0.61290
H425        H  0.31010517  0.35752726  0.54637091     0.42740
H426        H  0.41373729  0.37241408  0.95299499     0.42690
C427        C  0.38493379  0.15784196  0.99827721    -0.06370
C428        C  0.36816985  0.15273822  0.97270740    -0.33800
C429        C  0.34588595  0.13137077  0.97231040     0.35450
C430        C  0.34018809  0.11419956  0.99771007    -0.06730
C431        C  0.35736046  0.11884484  0.52316497    -0.33700
C432        C  0.37969253  0.14031979  0.52354506     0.35360
H433        H  0.37170915  0.16596684  0.95307441     0.15730
O434        O  0.32934473  0.12808684  0.94712187    -0.61200
H435        H  0.35350245  0.10577274  0.54284328     0.15740
O436        O  0.39610702  0.14401856  0.54875307    -0.61290
H437        H  0.41356909  0.13106571  0.54620163     0.42740
H438        H  0.31268096  0.14211349  0.94930355     0.42690
C439        C  0.15439245  0.38777589  0.99518554    -0.06370
C440        C  0.13366783  0.38665897  0.01823478    -0.33800
C441        C  0.11129386  0.36528106  0.01836718     0.35450
C442        C  0.10970562  0.34430839  0.99546828    -0.06730
C443        C  0.13009261  0.34577188  0.97217384    -0.33700
C444        C  0.15232254  0.36722771  0.97190211     0.35360
H445        H  0.13473325  0.40249013  0.03613517     0.15730
O446        O  0.09104473  0.36518621  0.04089977    -0.61200
H447        H  0.12940444  0.32963921  0.95452583     0.15740
O448        O  0.17299186  0.36670195  0.94973583    -0.61290
H449        H  0.16368203  0.37726604  0.93292117     0.42740
H450        H  0.07420090  0.37704342  0.53348567     0.42690
C451        C  0.11024324  0.15831276  0.99724407    -0.06370
C452        C  0.12565448  0.15203289  0.97107476    -0.33800
C453        C  0.14775829  0.13047616  0.97042466     0.35450
C454        C  0.15489915  0.11464053  0.99630948    -0.06730
C455        C  0.13902406  0.12041916  0.52233447    -0.33700
C456        C  0.11691202  0.14203622  0.52297172     0.35360
H457        H  0.12107017  0.16434815  0.95107055     0.15730
O458        O  0.16308607  0.12610921  0.94465392    -0.61200
H459        H  0.14383794  0.10825963  0.54238136     0.15740
O460        O  0.10160240  0.14662773  0.54871096    -0.61290
H461        H  0.11441868  0.15968274  0.56078092     0.42740
H462        H  0.15094299  0.11199114  0.93309162     0.42690
C463        C  0.38465042  0.50133249  0.84073332    -0.06370
C464        C  0.36733693  0.02660111  0.84521799    -0.33800
C465        C  0.34515115  0.02702169  0.86668873     0.35450
C466        C  0.34018675  0.50199634  0.88457633    -0.06730
C467        C  0.35784860  0.47686300  0.88046906    -0.33700
C468        C  0.38003639  0.47644073  0.85887907     0.35360
H469        H  0.37037468  0.04592053  0.83143137     0.15730
O470        O  0.32796354  0.05179986  0.86935929    -0.61200
H471        H  0.35450312  0.45746501  0.89407451     0.15740
O472        O  0.39697830  0.45155924  0.85572083    -0.61290
H473        H  0.41449395  0.45486476  0.86846499     0.42740
H474        H  0.31120600  0.04870036  0.85558940     0.42690
C475        C  0.15434204  0.00204492  0.88513271    -0.06370
C476        C  0.14071997  0.47537325  0.87707987    -0.33800
C477        C  0.11859516  0.47464164  0.85542327     0.35450
C478        C  0.10960872  0.50094430  0.84133708    -0.06730
C479        C  0.12254412  0.02772129  0.85010629    -0.33700
C480        C  0.14460031  0.02846815  0.87177694     0.35360
H481        H  0.14746673  0.45484294  0.88732679     0.15730
O482        O  0.10582451  0.44808668  0.84843153    -0.61200
H483        H  0.11600507  0.04824463  0.83971276     0.15740
O484        O  0.15718839  0.05509499  0.87880719    -0.61290
H485        H  0.14434666  0.06352691  0.89443027     0.42740
H486        H  0.11957721  0.43868432  0.83420074     0.42690
C487        C  0.11104074  0.00157311  0.65588717    -0.06370
C488        C  0.10332637  0.00888676  0.62678153    -0.33800
C489        C  0.12482468  0.00898826  0.60444802     0.35450
C490        C  0.15424881  0.00165986  0.61126792    -0.06730
C491        C  0.16191878  0.99447034  0.64038360    -0.33700
C492        C  0.14054202  0.99461553  0.66270635     0.35360
H493        H  0.08061724  0.01423245  0.62136396     0.15730
O494        O  0.11674493  0.01526111  0.57592682    -0.61200
H495        H  0.18460542  0.98905252  0.64584610     0.15740
O496        O  0.14868590  0.98813405  0.69117335    -0.61290
H497        H  0.15337889  0.00743292  0.70032646     0.42740
H498        H  0.11916743  0.03693854  0.57390743     0.42690
C499        C  0.38365637  0.00016871  0.65513031    -0.06370
C500        C  0.36395382  0.47630713  0.65335991    -0.33800
C501        C  0.34140013  0.47586445  0.63222766     0.35450
C502        C  0.33826357  0.49955077  0.61227108    -0.06730
C503        C  0.35821322  0.02326962  0.61376285    -0.33700
C504        C  0.38091289  0.02360355  0.63484044     0.35360
H505        H  0.36547516  0.45823906  0.66897688     0.15730
O506        O  0.32151526  0.45299555  0.63246335    -0.61200
H507        H  0.35631646  0.04154043  0.59842722     0.15740
O508        O  0.40030477  0.04688051  0.63532227    -0.61290
H509        H  0.41715069  0.04061962  0.62282025     0.42740
H510        H  0.33125658  0.43682163  0.62134889     0.42690
C511        C  0.49649893  0.11331598  0.84107861    -0.06370
C512        C  0.47024280  0.12856269  0.84741295    -0.33800
C513        C  0.46956395  0.15080818  0.86882908     0.35450
C514        C  0.99539278  0.15805402  0.88474834    -0.06730
C515        C  0.02147327  0.14224493  0.87899748    -0.33700
C516        C  0.02214536  0.11997676  0.85754212     0.35360
H517        H  0.45022686  0.12384685  0.83513787     0.15730
O518        O  0.44360190  0.16571807  0.87346820    -0.61200
H519        H  0.04153690  0.14722050  0.89109236     0.15740
O520        O  0.04810386  0.10512792  0.85270438    -0.61290
H521        H  0.04722670  0.08766285  0.86587725     0.42740
H522        H  0.44380182  0.18217816  0.85902868     0.42690
C523        C  0.49730106  0.34473652  0.88550890    -0.06370
C524        C  0.47045403  0.35392822  0.87297012    -0.33800
C525        C  0.46976103  0.37574026  0.85110342     0.35450
C526        C  0.49630757  0.38882186  0.84118713    -0.06730
C527        C  0.02306001  0.38035255  0.85442233    -0.33700
C528        C  0.02374131  0.35852759  0.87632926     0.35360
H529        H  0.44982805  0.34376061  0.87966586     0.15730
O530        O  0.44304765  0.38319279  0.83887497    -0.61200
H531        H  0.04369314  0.39036259  0.84751111     0.15740
O532        O  0.05039696  0.35104777  0.88868023    -0.61290
H533        H  0.05942148  0.33680433  0.87470902     0.42740
H534        H  0.43483237  0.39862437  0.85205302     0.42690
C535        C  0.99634735  0.38851486  0.65446118    -0.06370
C536        C  0.02264346  0.38220906  0.63922975    -0.33800
C537        C  0.02332448  0.36078229  0.61694545     0.35450
C538        C  0.49751662  0.34486963  0.60977184    -0.06730
C539        C  0.47107277  0.35175037  0.62445522    -0.33700
C540        C  0.47029887  0.37333190  0.64651051     0.35360
H541        H  0.04286495  0.39382407  0.64467750     0.15730
O542        O  0.04946327  0.35543765  0.60259929    -0.61200
H543        H  0.45090946  0.33988146  0.61935368     0.15740
O544        O  0.44416230  0.37833604  0.66101588    -0.61290
H545        H  0.43341833  0.39287476  0.64862952     0.42740
H546        H  0.04969833  0.36948816  0.58581538     0.42690
C547        C  0.99833648  0.15806584  0.61019052    -0.06370
C548        C  0.47135449  0.14860822  0.62233066    -0.33800
C549        C  0.47049475  0.12674826  0.64413366     0.35450
C550        C  0.99700615  0.11392598  0.65446065    -0.06730
C551        C  0.02391921  0.12279483  0.64174704    -0.33700
C552        C  0.02474103  0.14449845  0.61972224     0.35360
H553        H  0.45074056  0.15855999  0.61532607     0.15730
O554        O  0.44364724  0.11897358  0.65587998    -0.61200
H555        H  0.04454157  0.11310466  0.64908566     0.15740
O556        O  0.05157786  0.15261669  0.60819589    -0.61290
H557        H  0.05483655  0.13912591  0.59126886     0.42740
H558        H  0.43591604  0.10329852  0.64267362     0.42690
N559        N  0.06124609  0.98667102  0.21379030    -0.07020
N560        N  0.07862251  0.97660302  0.19263574    -0.59140
N561        N  0.06092548  0.51550846  0.28171681    -0.06700
N562        N  0.07772636  0.52559760  0.30332952    -0.61270
N563        N  0.06086887  0.98648858  0.28171677    -0.06300
N564        N  0.07757528  0.97627211  0.30333019    -0.59120
N565        N  0.06091715  0.51571594  0.21360945    -0.05980
N566        N  0.07782950  0.52601977  0.19216499    -0.61620
C567        C  0.08847231  0.50137876  0.17918434     0.95150
C568        C  0.08789471  0.00088520  0.31676206     0.94930
N569        N  0.48254225  0.56467234  0.28147754    -0.07210
N570        N  0.47223868  0.58147305  0.30293843    -0.59720
N571        N  0.01177297  0.56484584  0.21362628    -0.05330
N572        N  0.02186942  0.58189838  0.19220345    -0.60970
N573        N  0.48271378  0.56470056  0.21361402    -0.07240
N574        N  0.47245914  0.58165478  0.19226018    -0.59990
N575        N  0.01160722  0.56460056  0.28171932    -0.04970
N576        N  0.02165522  0.58128919  0.30342697    -0.61060
Mn577      Mn  0.03699558  0.54084429  0.24767135     1.18440
C578        C  0.49686775  0.59159133  0.31660103     0.97230
C579        C  0.99707465  0.59220684  0.17895927     0.97900
N580        N  0.01162221  0.93739575  0.28169544    -0.07260
N581        N  0.02154222  0.92052120  0.30333603    -0.63570
N582        N  0.48257934  0.93750414  0.21381497    -0.06060
N583        N  0.47215501  0.92058101  0.19253167    -0.64240
N584        N  0.01166782  0.93746310  0.21358145    -0.06770
N585        N  0.02159503  0.92051111  0.19202392    -0.63830
N586        N  0.48254203  0.93757360  0.28157202    -0.05660
N587        N  0.47210405  0.92083710  0.30301234    -0.64520
Mn588      Mn  0.03705744  0.96130789  0.24766693     1.10660
C589        C  0.49660795  0.91037019  0.31653185     0.98460
C590        C  0.99668072  0.91014564  0.17902054     0.98530
N591        N  0.43361679  0.51546376  0.21327996    -0.06770
N592        N  0.41667487  0.52544125  0.19170452    -0.62150
N593        N  0.43359325  0.98657671  0.28162654    -0.06090
N594        N  0.41692309  0.97643808  0.30331798    -0.58880
N595        N  0.43336460  0.51558304  0.28132557    -0.07400
N596        N  0.41642949  0.52579372  0.30272842    -0.61710
N597        N  0.43338435  0.98644862  0.21371953    -0.06390
N598        N  0.41613899  0.97607715  0.19262807    -0.58900
Mn599      Mn  0.45740778  0.54075619  0.24738230     1.20190
Mn600      Mn  0.45741030  0.96140735  0.24769669     1.10090
Cl601      Cl  0.99725617  0.50108125  0.24756263    -0.86870
C602        C  0.40603714  0.50060773  0.17891409     0.95460
C603        C  0.40645574  0.00115003  0.31640111     0.95260
N604        N  0.48348298  0.71743548  0.06152555    -0.07020
N605        N  0.47351774  0.69589071  0.07843628    -0.59140
N606        N  0.01225183  0.78559918  0.06093411    -0.06700
N607        N  0.02244482  0.80730387  0.07752464    -0.61270
N608        N  0.48321553  0.78527657  0.06130334    -0.06300
N609        N  0.47303578  0.80672863  0.07815490    -0.59120
N610        N  0.01249657  0.71763625  0.06134597    -0.05980
N611        N  0.02289470  0.69616559  0.07810416    -0.61620
C612        C  0.99831014  0.68269028  0.08856845     0.95150
C613        C  0.49773148  0.82042219  0.08804415     0.94930
N614        N  0.06108957  0.78479292  0.48221850    -0.07210
N615        N  0.07793723  0.80608580  0.47160801    -0.59720
N616        N  0.06111467  0.71736996  0.01184340    -0.05330
N617        N  0.07811329  0.69600782  0.02206900    -0.60970
N618        N  0.06087307  0.71708326  0.48279335    -0.07240
N619        N  0.07779123  0.69564733  0.47266775    -0.59990
N620        N  0.06094227  0.78543661  0.01126620    -0.04970
N621        N  0.07754408  0.80733423  0.02103839    -0.61060
Mn622      Mn  0.03739427  0.75156228  0.03702120     1.18440
C623        C  0.08787859  0.82010250  0.49604436     0.97230
C624        C  0.08829656  0.68252216  0.49740142     0.97900
N625        N  0.43352794  0.78501393  0.01274616    -0.07260
N626        N  0.41640937  0.80616029  0.02316701    -0.63570
N627        N  0.43341086  0.71740031  0.48369241    -0.06060
N628        N  0.41649092  0.69591149  0.47362486    -0.64240
N629        N  0.43389212  0.71711491  0.01273365    -0.06770
N630        N  0.41737770  0.69536719  0.02300996    -0.63830
N631        N  0.43353873  0.78536079  0.48368046    -0.05660
N632        N  0.41650708  0.80684397  0.47373850    -0.64520
Mn633      Mn  0.45787815  0.75116264  0.03774387     1.10660
C634        C  0.40607244  0.81976009  0.49860139     0.98460
C635        C  0.40674560  0.68222176  0.49837490     0.98530
N636        N  0.01107127  0.71687304  0.43389733    -0.06770
N637        N  0.02082688  0.69532305  0.41685673    -0.62150
N638        N  0.48250194  0.78516111  0.43403716    -0.06090
N639        N  0.47244591  0.80689268  0.41741157    -0.58880
N640        N  0.01157810  0.78482571  0.43375689    -0.07400
N641        N  0.02188485  0.80635535  0.41703042    -0.61710
N642        N  0.48201276  0.71731182  0.43400975    -0.06390
N643        N  0.47142758  0.69613638  0.41702429    -0.58900
Mn644      Mn  0.03680872  0.75079547  0.45749470     1.20190
Mn645      Mn  0.45718388  0.75136542  0.45819006     1.10090
Cl646      Cl  0.99732084  0.75120607  0.49760509    -0.86870
C647        C  0.99582946  0.68251165  0.40648238     0.95460
C648        C  0.49725542  0.82006707  0.40703361     0.95260
N649        N  0.28107050  0.93731970  0.48406831    -0.07020
N650        N  0.30254352  0.92010065  0.47442349    -0.59140
N651        N  0.21216614  0.93771355  0.01166836    -0.06700
N652        N  0.19048502  0.92061648  0.02116643    -0.61270
N653        N  0.21326030  0.93748714  0.48261913    -0.06300
N654        N  0.19251738  0.92014238  0.47176621    -0.59120
N655        N  0.28012539  0.93703446  0.01313094    -0.05980
N656        N  0.30085760  0.91954753  0.02381853    -0.61620
C657        C  0.31474600  0.90916207  0.49945668     0.95150
C658        C  0.17842037  0.90983272  0.49599939     0.94930
N659        N  0.21203344  0.51586375  0.06114525    -0.07210
N660        N  0.19062788  0.52619636  0.07808093    -0.59720
N661        N  0.27957400  0.98614400  0.06239473    -0.05330
N662        N  0.30035346  0.97560935  0.07991276    -0.60970
N663        N  0.28024714  0.51516755  0.06219240    -0.07240
N664        N  0.30167669  0.52496200  0.07944208    -0.59990
N665        N  0.21184300  0.98681894  0.06124415    -0.04970
N666        N  0.19053621  0.97678125  0.07847197    -0.61060
Mn667      Mn  0.24584993  0.96130027  0.03774423     1.18440
C668        C  0.17729304  0.50156205  0.08844287     0.97230
C669        C  0.31402581  0.00002350  0.09035222     0.97900
N670        N  0.21392057  0.98680662  0.43374527    -0.07260
N671        N  0.19230280  0.97690505  0.41679690    -0.63570
N672        N  0.28180794  0.51565044  0.43467464    -0.06060
N673        N  0.30283295  0.52606759  0.41740063    -0.64240
N674        N  0.28208234  0.98664146  0.43467439    -0.06770
N675        N  0.30343125  0.97672154  0.41741909    -0.63830
N676        N  0.21403147  0.51581765  0.43397768    -0.05660
N677        N  0.19262311  0.52623128  0.41716275    -0.64520
Mn678      Mn  0.24767497  0.96141064  0.45811940     1.10660
C679        C  0.17912852  0.50176350  0.40661024     0.98460
C680        C  0.31622666  0.00160309  0.40681880     0.98530
N681        N  0.28149467  0.56455033  0.01285028    -0.06770
N682        N  0.30289534  0.58170618  0.02292376    -0.62150
N683        N  0.21379073  0.56494713  0.48300555    -0.06090
N684        N  0.19282125  0.58215936  0.47239564    -0.58880
N685        N  0.21333032  0.56505395  0.01203761    -0.07400
N686        N  0.19189913  0.58226900  0.02177802    -0.61710
N687        N  0.28150354  0.56446840  0.48380569    -0.06390
N688        N  0.30274228  0.58154906  0.47353312    -0.58900
Mn689      Mn  0.24681895  0.54083226  0.03775780     1.20190
Mn690      Mn  0.24777312  0.54078697  0.45829303     1.10090
Cl691      Cl  0.24704667  0.50106972  0.49799949    -0.86870
C692        C  0.31599647  0.59214498  0.49810188     0.95460
C693        C  0.17924287  0.59278026  0.49678842     0.95050
C694        C  0.33896811  0.88717059  0.49993926    -0.06370
C695        C  0.35684887  0.88347813  0.47483998    -0.33800
C696        C  0.37926247  0.86216226  0.47429879     0.35450
C697        C  0.38395083  0.84382886  0.49903717    -0.06730
C698        C  0.36645729  0.84791435  0.02434703    -0.33700
C699        C  0.34401677  0.86914618  0.02487770     0.35360
H700        H  0.35349514  0.89720476  0.45552188     0.15730
O701        O  0.39637676  0.85946846  0.44943645    -0.61200
H702        H  0.36955987  0.83399328  0.04356683     0.15740
O703        O  0.32669023  0.87145971  0.04963451    -0.61290
H704        H  0.31010387  0.85752924  0.04638434     0.42740
H705        H  0.41371398  0.87239085  0.45295054     0.42690
C706        C  0.38493037  0.65784503  0.49830249    -0.06370
C707        C  0.36817431  0.65273486  0.47272878    -0.33800
C708        C  0.34589082  0.63136750  0.47232963     0.35450
C709        C  0.34018553  0.61420159  0.49773107    -0.06730
C710        C  0.35737204  0.61883550  0.02313881    -0.33700
C711        C  0.37970485  0.64030924  0.02351660     0.35360
H712        H  0.37171994  0.66595810  0.45309329     0.15730
O713        O  0.32935815  0.62807767  0.44713627    -0.61200
H714        H  0.35352022  0.60575864  0.04281518     0.15740
O715        O  0.39612777  0.64400038  0.04872026    -0.61290
H716        H  0.41358875  0.63104797  0.04615920     0.42740
H717        H  0.31269402  0.64210531  0.44930871     0.42690
C718        C  0.15438918  0.88777988  0.49517657    -0.06370
C719        C  0.13366571  0.88666332  0.51822696    -0.33800
C720        C  0.11129233  0.86528512  0.51836092     0.35450
C721        C  0.10970396  0.84431240  0.49546242    -0.06730
C722        C  0.13008925  0.84577589  0.47216663    -0.33700
C723        C  0.15231861  0.86723172  0.47189343     0.35360
H724        H  0.13473216  0.90249438  0.53612736     0.15730
O725        O  0.09104495  0.86518907  0.54089514    -0.61200
H726        H  0.12940105  0.82964250  0.45451926     0.15740
O727        O  0.17298742  0.86670527  0.44972673    -0.61290
H728        H  0.16367708  0.87726861  0.43291186     0.42740
H729        H  0.07420218  0.87704184  0.03348908     0.42690
C730        C  0.11025310  0.65829805  0.49724823    -0.06370
C731        C  0.12566430  0.65201995  0.47107974    -0.33800
C732        C  0.14776790  0.63046580  0.47043165     0.35450
C733        C  0.15490643  0.61463176  0.49631779    -0.06730
C734        C  0.13901745  0.62042928  0.02232670    -0.33700
C735        C  0.11690510  0.64204802  0.02296606     0.35360
H736        H  0.12108135  0.66433542  0.45107525     0.15730
O737        O  0.16309815  0.62610051  0.44466213    -0.61200
H738        H  0.14383177  0.60826888  0.04237298     0.15740
O739        O  0.10159691  0.64663755  0.04870630    -0.61290
H740        H  0.11441490  0.65969001  0.06077736     0.42740
H741        H  0.15095370  0.61198698  0.43309562     0.42690
C742        C  0.38465340  0.00134983  0.34073782    -0.06370
C743        C  0.36734071  0.52661867  0.34522422    -0.33800
C744        C  0.34515390  0.52703764  0.36669407     0.35450
C745        C  0.34018806  0.00201041  0.38457863    -0.06730
C746        C  0.35784987  0.97687745  0.38047037    -0.33700
C747        C  0.38003846  0.97645674  0.35888159     0.35360
H748        H  0.37037946  0.54593899  0.33143907     0.15730
O749        O  0.32796648  0.55181577  0.36936629    -0.61200
H750        H  0.35450344  0.95747826  0.39407388     0.15740
O751        O  0.39697982  0.95157500  0.35572200    -0.61290
H752        H  0.41449546  0.95487925  0.36846651     0.42740
H753        H  0.31120959  0.54871791  0.35559524     0.42690
C754        C  0.15433944  0.50205663  0.38513357    -0.06370
C755        C  0.14071725  0.97538489  0.37708280    -0.33800
C756        C  0.11859287  0.97465259  0.35542596     0.35450
C757        C  0.10960726  0.00095476  0.34133815    -0.06730
C758        C  0.12254226  0.52773198  0.35010536    -0.33700
C759        C  0.14459830  0.52847937  0.37177656     0.35360
H760        H  0.14746339  0.95485486  0.38733070     0.15730
O761        O  0.10582206  0.94809734  0.34843543    -0.61200
H762        H  0.11600372  0.54825487  0.33971068     0.15740
O763        O  0.15718703  0.55510607  0.37880597    -0.61290
H764        H  0.14434543  0.56353880  0.39442871     0.42740
H765        H  0.11957549  0.93869348  0.33420638     0.42690
C766        C  0.11104172  0.50157940  0.15588581    -0.06370
C767        C  0.10332612  0.50888999  0.12677977    -0.33800
C768        C  0.12482477  0.50899522  0.10444681     0.35450
C769        C  0.15425040  0.50167430  0.11126802    -0.06730
C770        C  0.16192180  0.49448934  0.14038443    -0.33700
C771        C  0.14054460  0.49463077  0.16270659     0.35360
H772        H  0.08061582  0.51423009  0.12136147     0.15730
O773        O  0.11674407  0.51526373  0.07592492    -0.61200
H774        H  0.18460959  0.48907707  0.14584770     0.15740
O775        O  0.14868939  0.48815391  0.19117439    -0.61290
H776        H  0.15337739  0.50745476  0.20032584     0.42740
H777        H  0.11916281  0.53694135  0.07390331     0.42690
C778        C  0.38365327  0.50018850  0.15513546    -0.06370
C779        C  0.36394977  0.97632761  0.15336628    -0.33800
C780        C  0.34139681  0.97588377  0.13223335     0.35450
C781        C  0.33826153  0.99956837  0.11227451    -0.06730
C782        C  0.35821137  0.52328720  0.11376569    -0.33700
C783        C  0.38091047  0.52362227  0.13484425     0.35360
H784        H  0.36547028  0.95826030  0.16898422     0.15730
O785        O  0.32151173  0.95301504  0.13247010    -0.61200
H786        H  0.35631548  0.54155687  0.09842862     0.15740
O787        O  0.40030285  0.54689880  0.13532516    -0.61290
H788        H  0.41714857  0.54063710  0.12282326     0.42740
H789        H  0.33125370  0.93683981  0.12135813     0.42690
C790        C  0.49652752  0.61332008  0.34107767    -0.06370
C791        C  0.47027104  0.62856343  0.34741649    -0.33800
C792        C  0.46959370  0.65080935  0.36883112     0.35450
C793        C  0.99541473  0.65803889  0.38473442    -0.06730
C794        C  0.02148954  0.64222453  0.37898082    -0.33700
C795        C  0.02215171  0.61995641  0.35752768     0.35360
H796        H  0.45025274  0.62384398  0.33514662     0.15730
O797        O  0.44363020  0.66571552  0.37347418    -0.61200
H798        H  0.04155641  0.64719567  0.39107211     0.15740
O799        O  0.04810602  0.60510185  0.35268609    -0.61290
H800        H  0.04723147  0.58764253  0.36586704     0.42740
H801        H  0.44382607  0.68217624  0.35903531     0.42690
C802        C  0.49727306  0.84473935  0.38551525    -0.06370
C803        C  0.47042727  0.85391735  0.37296353    -0.33800
C804        C  0.46973440  0.87572892  0.35109580     0.35450
C805        C  0.49627971  0.88882251  0.34119207    -0.06730
C806        C  0.02306370  0.88034635  0.35442904    -0.33700
C807        C  0.02374642  0.85851956  0.37633489     0.35360
H808        H  0.44980341  0.84373903  0.37964950     0.15730
O809        O  0.44302388  0.88316806  0.33885287    -0.61200
H810        H  0.04369627  0.89035845  0.34751918     0.15740
O811        O  0.05040288  0.85104245  0.38868553    -0.61290
H812        H  0.05942980  0.83680186  0.37471283     0.42740
H813        H  0.43479457  0.89859702  0.35202528     0.42690
C814        C  0.99635387  0.88851943  0.15446740    -0.06370
C815        C  0.02264937  0.88221077  0.13923605    -0.33800
C816        C  0.02332585  0.86078645  0.11694975     0.35450
C817        C  0.49748589  0.84487896  0.10976562    -0.06730
C818        C  0.47104600  0.85174833  0.12446132    -0.33700
C819        C  0.47027398  0.87332880  0.14651839     0.35360
H820        H  0.04287279  0.89382211  0.14468457     0.15730
O821        O  0.04946306  0.85543736  0.10260221    -0.61200
H822        H  0.45088556  0.83987071  0.11936873     0.15740
O823        O  0.44414265  0.87832157  0.16103707    -0.61290
H824        H  0.43338579  0.89285509  0.14865584     0.42740
H825        H  0.04970069  0.86948927  0.08581951     0.42690
C826        C  0.99830315  0.65808670  0.11017658    -0.06370
C827        C  0.47138197  0.64860517  0.12233000    -0.33800
C828        C  0.47052202  0.62674460  0.14413211     0.35450
C829        C  0.99699443  0.61394073  0.15444895    -0.06730
C830        C  0.02390230  0.62281757  0.14172928    -0.33700
C831        C  0.02471373  0.64452325  0.11970342     0.35360
H832        H  0.45076649  0.65854830  0.11531765     0.15730
O833        O  0.44367243  0.61895936  0.15586675    -0.61200
H834        H  0.04452832  0.61313164  0.14906350     0.15740
O835        O  0.05154667  0.65264783  0.10817207    -0.61290
H836        H  0.05481529  0.63914440  0.09125729     0.42740
H837        H  0.43595242  0.60328237  0.14265614     0.42690
N838        N  0.06124229  0.98666841  0.71379048    -0.07020
N839        N  0.07861782  0.97659977  0.69263556    -0.59140
N840        N  0.06092677  0.51550238  0.78172069    -0.06700
N841        N  0.07772833  0.52558955  0.80333340    -0.61270
N842        N  0.06086671  0.98648280  0.78171704    -0.06300
N843        N  0.07757426  0.97626424  0.80332872    -0.59120
N844        N  0.06091776  0.51571327  0.71361333    -0.05980
N845        N  0.07783131  0.52601645  0.69216911    -0.61620
C846        C  0.08847121  0.50137493  0.67918619     0.95150
C847        C  0.08789495  0.00087617  0.81676217     0.94930
N848        N  0.48252605  0.56467030  0.78147308    -0.07210
N849        N  0.47221810  0.58146657  0.80293563    -0.59720
N850        N  0.01177534  0.56484162  0.71364079    -0.05330
N851        N  0.02187372  0.58188851  0.69221580    -0.60970
N852        N  0.48269653  0.56469877  0.71360956    -0.07240
N853        N  0.47243725  0.58164948  0.69225517    -0.59990
N854        N  0.01161205  0.56460178  0.78173352    -0.04970
N855        N  0.02165931  0.58129535  0.80343893    -0.61060
Mn856      Mn  0.03699802  0.54084141  0.74768087     1.18440
C857        C  0.49684448  0.59158992  0.81659906     0.97230
C858        C  0.99708022  0.59219705  0.67897113     0.97900
N859        N  0.01161657  0.93739665  0.78168999    -0.07260
N860        N  0.02153728  0.92052395  0.80333100    -0.63570
N861        N  0.48259482  0.93750203  0.71381152    -0.06060
N862        N  0.47217466  0.92057402  0.69253028    -0.64240
N863        N  0.01166114  0.93746179  0.71357647    -0.06770
N864        N  0.02158749  0.92050830  0.69201937    -0.63830
N865        N  0.48255857  0.93757257  0.78156855    -0.05660
N866        N  0.47212529  0.92083397  0.80300940    -0.64520
Mn867      Mn  0.03705250  0.96130580  0.74766418     1.10660
C868        C  0.49663182  0.91037138  0.81652758     0.98460
C869        C  0.99667314  0.91014211  0.67901591     0.98530
N870        N  0.43361334  0.51545028  0.71327729    -0.06770
N871        N  0.41667063  0.52542495  0.69170150    -0.62150
N872        N  0.43359593  0.98656374  0.78162431    -0.06090
N873        N  0.41692680  0.97642286  0.80331586    -0.58880
N874        N  0.43336160  0.51557000  0.78132207    -0.07400
N875        N  0.41642380  0.52577830  0.80272372    -0.61710
N876        N  0.43338681  0.98643508  0.71371646    -0.06390
N877        N  0.41614434  0.97606064  0.69262394    -0.58900
Mn878      Mn  0.45739788  0.54074820  0.74737846     1.20190
Mn879      Mn  0.45741948  0.96139950  0.74769366     1.10090
Cl880      Cl  0.99725633  0.50108075  0.74756925    -0.86870
C881        C  0.40603845  0.50058986  0.67891009     0.95460
C882        C  0.40645407  0.00113365  0.81639744     0.95260
N883        N  0.48347346  0.71744354  0.56152908    -0.07020
N884        N  0.47349950  0.69590302  0.57844078    -0.59140
N885        N  0.01228476  0.78557567  0.56094803    -0.06700
N886        N  0.02246614  0.80729207  0.57753074    -0.61270
N887        N  0.48322976  0.78528337  0.56129744    -0.06300
N888        N  0.47305792  0.80674010  0.57814696    -0.59120
N889        N  0.01254774  0.71760810  0.56136143    -0.05980
N890        N  0.02294356  0.69614229  0.57812673    -0.61620
C891        C  0.99835529  0.68266395  0.58858199     0.95150
C892        C  0.49775848  0.82041508  0.58804813     0.94930
N893        N  0.06107036  0.78480445  0.98221814    -0.07210
N894        N  0.07792916  0.80608983  0.97160931    -0.59720
N895        N  0.06114778  0.71736375  0.51184465    -0.05330
N896        N  0.07813766  0.69599687  0.52207108    -0.60970
N897        N  0.06084198  0.71709136  0.98279248    -0.07240
N898        N  0.07776990  0.69566189  0.97266625    -0.59990
N899        N  0.06096283  0.78542617  0.51126703    -0.04970
N900        N  0.07755502  0.80733191  0.52103693    -0.61060
Mn901      Mn  0.03743243  0.75154564  0.53703022     1.18440
C902        C  0.08787554  0.82010136  0.99604711     0.97230
C903        C  0.08827982  0.68253686  0.99739895     0.97900
N904        N  0.43353390  0.78502261  0.51273485    -0.07260
N905        N  0.41641438  0.80617160  0.52314746    -0.63570
N906        N  0.43340136  0.71741378  0.98368203    -0.06060
N907        N  0.41647927  0.69592927  0.97360757    -0.64240
N908        N  0.43388739  0.71712384  0.51274426    -0.06770
N909        N  0.41736737  0.69538326  0.52302805    -0.63830
N910        N  0.43354377  0.78537426  0.98369194    -0.05660
N911        N  0.41651879  0.80686597  0.97375863    -0.64520
Mn912      Mn  0.45787858  0.75118216  0.53774302     1.10660
C913        C  0.40607818  0.81976730  0.99862613     0.98460
C914        C  0.40674604  0.68222172  0.99835302     0.98530
N915        N  0.01102855  0.71689707  0.93391038    -0.06770
N916        N  0.02078866  0.69534184  0.91687848    -0.62150
N917        N  0.48251017  0.78517314  0.93404006    -0.06090
N918        N  0.47246310  0.80690963  0.91741638    -0.58880
N919        N  0.01154926  0.78484620  0.93376248    -0.07400
N920        N  0.02186527  0.80636908  0.91703320    -0.61710
N921        N  0.48199709  0.71732384  0.93400138    -0.06390
N922        N  0.47140451  0.69615248  0.91701430    -0.58900
Mn923      Mn  0.03677488  0.75081231  0.95750000     1.20190
Mn924      Mn  0.45717913  0.75138918  0.95818801     1.10090
Cl925      Cl  0.99727104  0.75124568  0.99760109    -0.86870
C926        C  0.99579584  0.68252992  0.90649699     0.95460
C927        C  0.49727754  0.82006592  0.90702827     0.95260
N928        N  0.28107328  0.93731943  0.98407994    -0.07020
N929        N  0.30254907  0.92010116  0.97443964    -0.59140
N930        N  0.21216562  0.93771198  0.51166034    -0.06700
N931        N  0.19048427  0.92061521  0.52115774    -0.61270
N932        N  0.21326236  0.93748515  0.98262725    -0.06300
N933        N  0.19252098  0.92013810  0.97177516    -0.59120
N934        N  0.28012446  0.93703051  0.51311933    -0.05980
N935        N  0.30085567  0.91953970  0.52380237    -0.61620
C936        C  0.31475085  0.90916769  0.99947566     0.95150
C937        C  0.17842302  0.90983024  0.99600847     0.94930
N938        N  0.21203333  0.51585332  0.56114746    -0.07210
N939        N  0.19062746  0.52618429  0.57808377    -0.59720
N940        N  0.27957430  0.98613272  0.56239234    -0.05330
N941        N  0.30035439  0.97559560  0.57990811    -0.60970
N942        N  0.28024691  0.51515626  0.56219464    -0.07240
N943        N  0.30167673  0.52494848  0.57944502    -0.59990
N944        N  0.21184280  0.98680861  0.56124323    -0.04970
N945        N  0.19053542  0.97676927  0.57846963    -0.61060
Mn946      Mn  0.24584995  0.96129322  0.53773850     1.18440
C947        C  0.17729220  0.50154909  0.58844301     0.97230
C948        C  0.31402654  0.00000845  0.59035082     0.97900
N949        N  0.21392172  0.98679840  0.93374670    -0.07260
N950        N  0.19230459  0.97689490  0.91679835    -0.63570
N951        N  0.28180809  0.51564327  0.93467309    -0.06060
N952        N  0.30283249  0.52605788  0.91739666    -0.64240
N953        N  0.28208359  0.98663422  0.93467758    -0.06770
N954        N  0.30343238  0.97671196  0.91742335    -0.63830
N955        N  0.21403200  0.51580958  0.93397684    -0.05660
N956        N  0.19262417  0.52622121  0.91716049    -0.64520
Mn957      Mn  0.24767694  0.96140610  0.95812558     1.10660
C958        C  0.17913052  0.50175247  0.90660973     0.98460
C959        C  0.31622678  0.00159200  0.90681850     0.98530
N960        N  0.28149494  0.56454562  0.51286081    -0.06770
N961        N  0.30289352  0.58170185  0.52293797    -0.62150
N962        N  0.21378619  0.56495049  0.98299710    -0.06090
N963        N  0.19281583  0.58216278  0.97238678    -0.58880
N964        N  0.21333363  0.56504757  0.51204593    -0.07400
N965        N  0.19190229  0.58226123  0.52178723    -0.61710
N966        N  0.28150189  0.56446926  0.98379521    -0.06390
N967        N  0.30274135  0.58154679  0.97351886    -0.58900
Mn968      Mn  0.24681959  0.54082397  0.53776382     1.20190
Mn969      Mn  0.24777144  0.54078399  0.95828768     1.10090
Cl970      Cl  0.24704649  0.50107168  0.99799967    -0.86870
C971        C  0.31599759  0.59214501  0.99808533     0.95460
C972        C  0.17923769  0.59278678  0.99677929     0.95050
C973        C  0.33897634  0.88718005  0.99996380    -0.06370
C974        C  0.35686494  0.88349395  0.97486961    -0.33800
C975        C  0.37927993  0.86217997  0.97433104     0.35450
C976        C  0.38396131  0.84384050  0.99906655    -0.06730
C977        C  0.36645266  0.84790726  0.52432099    -0.33700
C978        C  0.34401315  0.86913952  0.52485399     0.35360
H979        H  0.35351570  0.89722369  0.95555294     0.15730
O980        O  0.39640117  0.85949254  0.94947277    -0.61200
H981        H  0.36955997  0.83399010  0.54354287     0.15740
O982        O  0.32669311  0.87145726  0.54961495    -0.61290
H983        H  0.31010519  0.85752724  0.54637088     0.42740
H984        H  0.41373734  0.87241412  0.95299500     0.42690
C985        C  0.38493395  0.65784206  0.99827721    -0.06370
C986        C  0.36816999  0.65273830  0.97270740    -0.33800
C987        C  0.34588609  0.63137082  0.97231039     0.35450
C988        C  0.34018822  0.61419960  0.99771006    -0.06730
C989        C  0.35736047  0.61884480  0.52316493    -0.33700
C990        C  0.37969254  0.64031976  0.52354503     0.35360
H991        H  0.37170929  0.66596692  0.95307441     0.15730
O992        O  0.32934488  0.62808688  0.94712186    -0.61200
H993        H  0.35350245  0.60577270  0.54284324     0.15740
O994        O  0.39610702  0.64401853  0.54875305    -0.61290
H995        H  0.41356910  0.63106570  0.54620161     0.42740
H996        H  0.31268108  0.64211349  0.94930355     0.42690
C997        C  0.15439252  0.88777583  0.99518556    -0.06370
C998        C  0.13366790  0.88665890  0.01823479    -0.33800
C999        C  0.11129389  0.86528102  0.01836715     0.35450
C1000       C  0.10970562  0.84430837  0.99546822    -0.06730
C1001       C  0.13009264  0.84577186  0.97217381    -0.33700
C1002       C  0.15232259  0.86722766  0.97190211     0.35360
H1003       H  0.13473333  0.90249004  0.03613520     0.15730
O1004       O  0.09104478  0.86518616  0.04089977    -0.61200
H1005       H  0.12940447  0.82963920  0.95452578     0.15740
O1006       O  0.17299192  0.86670190  0.94973583    -0.61290
H1007       H  0.16368210  0.87726600  0.93292117     0.42740
H1008       H  0.07420088  0.87704340  0.53348562     0.42690
C1009       C  0.11024334  0.65831275  0.99724415    -0.06370
C1010       C  0.12565457  0.65203289  0.97107483    -0.33800
C1011       C  0.14775838  0.63047618  0.97042472     0.35450
C1012       C  0.15489925  0.61464055  0.99630953    -0.06730
C1013       C  0.13902417  0.62041912  0.52233455    -0.33700
C1014       C  0.11691214  0.64203617  0.52297183     0.35360
H1015       H  0.12107025  0.66434815  0.95107062     0.15730
O1016       O  0.16308616  0.62610924  0.94465397    -0.61200
H1017       H  0.14383809  0.60825960  0.54238144     0.15740
O1018       O  0.10160254  0.64662769  0.54871107    -0.61290
H1019       H  0.11441880  0.65968277  0.56078099     0.42740
H1020       H  0.15094308  0.61199117  0.93309166     0.42690
C1021       C  0.38465043  0.00133251  0.84073331    -0.06370
C1022       C  0.36733692  0.52660109  0.84521799    -0.33800
C1023       C  0.34515113  0.52702166  0.86668872     0.35450
C1024       C  0.34018677  0.00199638  0.88457634    -0.06730
C1025       C  0.35784862  0.97686304  0.88046906    -0.33700
C1026       C  0.38003640  0.97644075  0.85887907     0.35360
H1027       H  0.37037467  0.54592050  0.83143137     0.15730
O1028       O  0.32796351  0.55179982  0.86935928    -0.61200
H1029       H  0.35450314  0.95746505  0.89407452     0.15740
O1030       O  0.39697830  0.95155926  0.85572083    -0.61290
H1031       H  0.41449396  0.95486478  0.86846499     0.42740
H1032       H  0.31120597  0.54870032  0.85558939     0.42690
C1033       C  0.15434204  0.50204495  0.88513272    -0.06370
C1034       C  0.14071996  0.97537323  0.87707986    -0.33800
C1035       C  0.11859514  0.97464163  0.85542326     0.35450
C1036       C  0.10960872  0.00094431  0.84133709    -0.06730
C1037       C  0.12254412  0.52772129  0.85010628    -0.33700
C1038       C  0.14460030  0.52846817  0.87177694     0.35360
H1039       H  0.14746671  0.95484292  0.88732676     0.15730
O1040       O  0.10582448  0.94808668  0.84843152    -0.61200
H1041       H  0.11600507  0.54824462  0.83971274     0.15740
O1042       O  0.15718837  0.55509501  0.87880718    -0.61290
H1043       H  0.14434664  0.56352694  0.89443026     0.42740
H1044       H  0.11957718  0.93868433  0.83420073     0.42690
C1045       C  0.11104072  0.50157312  0.65588711    -0.06370
C1046       C  0.10332589  0.50888444  0.62678101    -0.33800
C1047       C  0.12482423  0.50898600  0.60444754     0.35450
C1048       C  0.15424884  0.50166000  0.61126794    -0.06730
C1049       C  0.16191926  0.49447281  0.64038408    -0.33700
C1050       C  0.14054245  0.49461792  0.66270678     0.35360
H1051       H  0.08061641  0.51422832  0.62136309     0.15730
O1052       O  0.11674414  0.51525673  0.57592597    -0.61200
H1053       H  0.18460624  0.48905675  0.64584692     0.15740
O1054       O  0.14868666  0.48813850  0.69117416    -0.61290
H1055       H  0.15337850  0.50743816  0.70032620     0.42740
H1056       H  0.11916546  0.53693417  0.57390530     0.42690
C1057       C  0.38365634  0.50016870  0.65513025    -0.06370
C1058       C  0.36395380  0.97630717  0.65336000    -0.33800
C1059       C  0.34140010  0.97586450  0.63222774     0.35450
C1060       C  0.33826358  0.99955079  0.61227112    -0.06730
C1061       C  0.35821317  0.52326963  0.61376283    -0.33700
C1062       C  0.38091283  0.52360357  0.63484042     0.35360
H1063       H  0.36547510  0.95823912  0.66897700     0.15730
O1064       O  0.32151519  0.95299564  0.63246347    -0.61200
H1065       H  0.35631638  0.54154046  0.59842724     0.15740
O1066       O  0.40030466  0.54688056  0.63532230    -0.61290
H1067       H  0.41715062  0.54061972  0.62282030     0.42740
H1068       H  0.33125647  0.93682169  0.62134902     0.42690
C1069       C  0.49649908  0.61331615  0.84107874    -0.06370
C1070       C  0.47024300  0.62856292  0.84741324    -0.33800
C1071       C  0.46956425  0.65080847  0.86882938     0.35450
C1072       C  0.99539308  0.65805373  0.88474806    -0.06730
C1073       C  0.02147353  0.64224462  0.87899721    -0.33700
C1074       C  0.02214552  0.61997648  0.85754190     0.35360
H1075       H  0.45022701  0.62384708  0.83513824     0.15730
O1076       O  0.44360219  0.66571833  0.87346856    -0.61200
H1077       H  0.04153717  0.64722015  0.89109209     0.15740
O1078       O  0.04810398  0.60512758  0.85270416    -0.61290
H1079       H  0.04722686  0.58766262  0.86587718     0.42740
H1080       H  0.44380195  0.68217827  0.85902887     0.42690
C1081       C  0.49730072  0.84473694  0.88550866    -0.06370
C1082       C  0.47045375  0.85392858  0.87296986    -0.33800
C1083       C  0.46976085  0.87574054  0.85110319     0.35450
C1084       C  0.49630746  0.88882207  0.84118701    -0.06730
C1085       C  0.02305988  0.88035229  0.85442255    -0.33700
C1086       C  0.02374112  0.85852731  0.87632951     0.35360
H1087       H  0.44982774  0.84376100  0.87966558     0.15730
O1088       O  0.44304751  0.88319311  0.83887469    -0.61200
H1089       H  0.04369304  0.89036230  0.84751137     0.15740
O1090       O  0.05039675  0.85104745  0.88868048    -0.61290
H1091       H  0.05942135  0.83680417  0.87470916     0.42740
H1092       H  0.43483214  0.89862457  0.85205283     0.42690
C1093       C  0.99634735  0.88851486  0.65446121    -0.06370
C1094       C  0.02264346  0.88220905  0.63922977    -0.33800
C1095       C  0.02332449  0.86078228  0.61694546     0.35450
C1096       C  0.49751666  0.84486969  0.60977193    -0.06730
C1097       C  0.47107285  0.85175047  0.62445536    -0.33700
C1098       C  0.47029901  0.87333200  0.64651067     0.35360
H1099       H  0.04286495  0.89382407  0.64467753     0.15730
O1100       O  0.04946328  0.85543764  0.60259931    -0.61200
H1101       H  0.45090952  0.83988158  0.61935383     0.15740
O1102       O  0.44416246  0.87833618  0.66101606    -0.61290
H1103       H  0.43341843  0.89287480  0.64862964     0.42740
H1104       H  0.04969833  0.86948815  0.58581540     0.42690
C1105       C  0.99833650  0.65806582  0.61019055    -0.06370
C1106       C  0.47135445  0.64860832  0.62233056    -0.33800
C1107       C  0.47049466  0.62674837  0.64413355     0.35450
C1108       C  0.99700620  0.61392598  0.65446066    -0.06730
C1109       C  0.02391925  0.62279484  0.64174706    -0.33700
C1110       C  0.02474106  0.64449845  0.61972226     0.35360
H1111       H  0.45074055  0.65856011  0.61532595     0.15730
O1112       O  0.44364714  0.61897371  0.65587984    -0.61200
H1113       H  0.04454161  0.61310468  0.64908568     0.15740
O1114       O  0.05157789  0.65261671  0.60819591    -0.61290
H1115       H  0.05483658  0.63912593  0.59126887     0.42740
H1116       H  0.43591599  0.60329857  0.64267355     0.42690
N1117       N  0.56123589  0.48665607  0.21379804    -0.07020
N1118       N  0.57860925  0.47658680  0.19264213    -0.59140
N1119       N  0.56092599  0.01549355  0.28172098    -0.06700
N1120       N  0.57772992  0.02558134  0.30333164    -0.61270
N1121       N  0.56086115  0.48647381  0.28172233    -0.06300
N1122       N  0.57756966  0.47625592  0.30333354    -0.59120
N1123       N  0.56091345  0.01570094  0.21361668    -0.05980
N1124       N  0.57782443  0.02600405  0.19217156    -0.61620
C1125       C  0.58846226  0.00136259  0.17918880     0.95150
C1126       C  0.58789427  0.50086824  0.31676326     0.94930
N1127       N  0.98253605  0.06467461  0.28147304    -0.07210
N1128       N  0.97222750  0.08146992  0.30293578    -0.59720
N1129       N  0.51177998  0.06483515  0.21363691    -0.05330
N1130       N  0.52187903  0.08188370  0.19221335    -0.60970
N1131       N  0.98270852  0.06470644  0.21360636    -0.07240
N1132       N  0.97245095  0.08166035  0.19225287    -0.59990
N1133       N  0.51161871  0.06459341  0.28172542    -0.04970
N1134       N  0.52167167  0.08128400  0.30342902    -0.61060
Mn1135     Mn  0.53699953  0.04083197  0.24767839     1.18440
C1136       C  0.99685327  0.09159179  0.31660083     0.97230
C1137       C  0.49708566  0.09219526  0.17897033     0.97900
N1138       N  0.51160503  0.43738937  0.28169778    -0.07260
N1139       N  0.52152140  0.42051602  0.30334058    -0.63570
N1140       N  0.98259056  0.43750926  0.21381460    -0.06060
N1141       N  0.97216721  0.42058436  0.19253325    -0.64240
N1142       N  0.51165513  0.43745403  0.21358214    -0.06770
N1143       N  0.52158204  0.42050200  0.19202424    -0.63830
N1144       N  0.98255478  0.43757694  0.28156995    -0.05660
N1145       N  0.97212088  0.42083694  0.30300977    -0.64520
Mn1146     Mn  0.53704538  0.46129611  0.24767142     1.10660
C1147       C  0.99662715  0.41037237  0.31652739     0.98460
C1148       C  0.49666800  0.41013969  0.17901724     0.98530
N1149       N  0.93361493  0.01545872  0.21328086    -0.06770
N1150       N  0.91667466  0.02543463  0.19170352    -0.62150
N1151       N  0.93359560  0.48657138  0.28162184    -0.06090
N1152       N  0.91692828  0.47643011  0.30331436    -0.58880
N1153       N  0.93336749  0.01557782  0.28132631    -0.07400
N1154       N  0.91642897  0.02578545  0.30272807    -0.61710
N1155       N  0.93338272  0.48644081  0.21371327    -0.06390
N1156       N  0.91613665  0.47606576  0.19262321    -0.58900
Mn1157     Mn  0.95740586  0.04075527  0.24737918     1.20190
Mn1158     Mn  0.95741693  0.46140637  0.24769358     1.10090
Cl1159     Cl  0.49725497  0.00107560  0.24756937    -0.86870
C1160       C  0.90603844  0.00060052  0.17891327     0.95460
C1161       C  0.90645613  0.50114038  0.31639658     0.95260
N1162       N  0.98343132  0.21747269  0.06152014    -0.07020
N1163       N  0.97346910  0.19592585  0.07843327    -0.59140
N1164       N  0.51228330  0.28557568  0.06094831    -0.06700
N1165       N  0.52246457  0.30729195  0.07753120    -0.61270
N1166       N  0.98318361  0.28531832  0.06128484    -0.06300
N1167       N  0.97301617  0.30677155  0.07814123    -0.59120
N1168       N  0.51254680  0.21760829  0.06136141    -0.05980
N1169       N  0.52294358  0.19614279  0.07812654    -0.61620
C1170       C  0.49835597  0.18266393  0.08858255     0.95150
C1171       C  0.99771963  0.32044531  0.08803720     0.94930
N1172       N  0.56108743  0.28480238  0.48223123    -0.07210
N1173       N  0.57793508  0.30609894  0.47162933    -0.59720
N1174       N  0.56114309  0.21736636  0.01184399    -0.05330
N1175       N  0.57813182  0.19599950  0.02207090    -0.60970
N1176       N  0.56088023  0.21709253  0.48278055    -0.07240
N1177       N  0.57779840  0.19566015  0.47264589    -0.59990
N1178       N  0.56096146  0.28542664  0.01126655    -0.04970
N1179       N  0.57755578  0.30733043  0.02103728    -0.61060
Mn1180     Mn  0.53743018  0.25154659  0.03702986     1.18440
C1181       C  0.58788772  0.32009639  0.49607157     0.97230
C1182       C  0.58829279  0.18251563  0.49737450     0.97900
N1183       N  0.93345831  0.28508898  0.01273095    -0.07260
N1184       N  0.91636966  0.30626563  0.02314721    -0.63570
N1185       N  0.93340244  0.21741388  0.48368156    -0.06060
N1186       N  0.91648086  0.19592934  0.47360641    -0.64240
N1187       N  0.93383080  0.21717370  0.01273014    -0.06770
N1188       N  0.91733814  0.19541033  0.02300793    -0.63830
N1189       N  0.93354435  0.28537441  0.48369228    -0.05660
N1190       N  0.91651870  0.30686589  0.47375938    -0.64520
Mn1191     Mn  0.95782259  0.25121792  0.03773454     1.10660
C1192       C  0.90607807  0.31976679  0.49862719     0.98460
C1193       C  0.90674722  0.18222139  0.49835141     0.98530
N1194       N  0.51108499  0.21688467  0.43389178    -0.06770
N1195       N  0.52084842  0.19534180  0.41684588    -0.62150
N1196       N  0.98251136  0.28517286  0.43404114    -0.06090
N1197       N  0.97246359  0.30690910  0.41741752    -0.58880
N1198       N  0.51156891  0.28483758  0.43376525    -0.07400
N1199       N  0.52186755  0.30637398  0.41704343    -0.61710
N1200       N  0.98199892  0.21732402  0.43400195    -0.06390
N1201       N  0.97140657  0.19615292  0.41701448    -0.58900
Mn1202     Mn  0.53681000  0.25081742  0.45749536     1.20190
Mn1203     Mn  0.95718046  0.25138922  0.45818846     1.10090
Cl1204     Cl  0.49732470  0.25121089  0.49761207    -0.86870
C1205       C  0.49585497  0.18251410  0.40648103     0.95460
C1206       C  0.99727742  0.32006571  0.40702869     0.95260
N1207       N  0.78107408  0.43731878  0.48408415    -0.07020
N1208       N  0.80254934  0.42009993  0.47444416    -0.59140
N1209       N  0.71214696  0.43775647  0.01166204    -0.06700
N1210       N  0.69046735  0.42065541  0.02115938    -0.61270
N1211       N  0.71326349  0.43748384  0.48263477    -0.06300
N1212       N  0.69252255  0.42013361  0.47178692    -0.59120
N1213       N  0.78013977  0.43717515  0.01313246    -0.05980
N1214       N  0.80098894  0.41983949  0.02383312    -0.61620
C1215       C  0.81475227  0.40916847  0.49948033     0.95150
C1216       C  0.67842725  0.40982849  0.49602315     0.94930
N1217       N  0.71202542  0.01591678  0.06117883    -0.07210
N1218       N  0.69062405  0.02624137  0.07811512    -0.59720
N1219       N  0.77953005  0.48618661  0.06241550    -0.05330
N1220       N  0.80030790  0.47563740  0.07992613    -0.60970
N1221       N  0.78026052  0.01521214  0.06218953    -0.07240
N1222       N  0.80172873  0.02498487  0.07940510    -0.59990
N1223       N  0.71180413  0.48686156  0.06123746    -0.04970
N1224       N  0.69049994  0.47681967  0.07846469    -0.61060
Mn1225     Mn  0.74582028  0.46135988  0.03774353     1.18440
C1226       C  0.67728258  0.00160098  0.08846289     0.97230
C1227       C  0.81399874  0.50004174  0.09036196     0.97900
N1228       N  0.71392244  0.48679267  0.43374754    -0.07260
N1229       N  0.69230447  0.47688867  0.41680045    -0.63570
N1230       N  0.78180956  0.01563766  0.43467218    -0.06060
N1231       N  0.80283320  0.02605256  0.41739553    -0.64240
N1232       N  0.78208512  0.48662857  0.43467669    -0.06770
N1233       N  0.80343385  0.47670649  0.41742201    -0.63830
N1234       N  0.71403428  0.01580380  0.43397480    -0.05660
N1235       N  0.69262667  0.02621498  0.41715784    -0.64520
Mn1236     Mn  0.74767772  0.46140233  0.45812831     1.10660
C1237       C  0.67913147  0.00174602  0.40660957     0.98460
C1238       C  0.81622784  0.50158696  0.40681688     0.98530
N1239       N  0.78149344  0.06457614  0.01285141    -0.06770
N1240       N  0.80290342  0.08172052  0.02292315    -0.62150
N1241       N  0.71379191  0.06494434  0.48298911    -0.06090
N1242       N  0.69282084  0.08215180  0.47237428    -0.58880
N1243       N  0.71333593  0.06508461  0.01205059    -0.07400
N1244       N  0.69190002  0.08229048  0.02179231    -0.61710
N1245       N  0.78150468  0.06446691  0.48379031    -0.06390
N1246       N  0.80274433  0.08154411  0.47351358    -0.58900
Mn1247     Mn  0.74682164  0.04087514  0.03777117     1.20190
Mn1248     Mn  0.74777489  0.04077888  0.45828386     1.10090
Cl1249     Cl  0.74704865  0.00107099  0.49799942    -0.86870
C1250       C  0.81599936  0.09214426  0.49807997     0.95460
C1251       C  0.67924038  0.09277630  0.49676421     0.95050
C1252       C  0.83897760  0.38718088  0.49996810    -0.06370
C1253       C  0.85686490  0.38349435  0.47487305    -0.33800
C1254       C  0.87927924  0.36217981  0.47433330     0.35450
C1255       C  0.88396130  0.34384016  0.49906850    -0.06730
C1256       C  0.86653598  0.34818079  0.02433866    -0.33700
C1257       C  0.84416205  0.36948318  0.02488518     0.35360
H1258       H  0.85351507  0.39722414  0.45555651     0.15730
O1259       O  0.89639916  0.35949205  0.44947418    -0.61200
H1260       H  0.86956353  0.33421056  0.04353411     0.15740
O1261       O  0.82676495  0.37175068  0.04959519    -0.61290
H1262       H  0.81011302  0.35786739  0.04622085     0.42740
H1263       H  0.91373563  0.37241350  0.45299542     0.42690
C1264       C  0.88493571  0.15784113  0.49827441    -0.06370
C1265       C  0.86817411  0.15273601  0.47270321    -0.33800
C1266       C  0.84589052  0.13136816  0.47230504     0.35450
C1267       C  0.84019049  0.11419820  0.49770498    -0.06730
C1268       C  0.85738475  0.11883920  0.02313516    -0.33700
C1269       C  0.87971133  0.14031925  0.02351298     0.35360
H1270       H  0.87171496  0.16596386  0.45306999     0.15730
O1271       O  0.82935163  0.12808270  0.44711518    -0.61200
H1272       H  0.85353560  0.10576151  0.04281159     0.15740
O1273       O  0.89613374  0.14401576  0.04871629    -0.61290
H1274       H  0.91359407  0.13106199  0.04615896     0.42740
H1275       H  0.81268761  0.14210942  0.44929450     0.42690
C1276       C  0.65440069  0.38777065  0.49520627    -0.06370
C1277       C  0.63367333  0.38665865  0.51825373    -0.33800
C1278       C  0.61130130  0.36527862  0.51838929     0.35450
C1279       C  0.60971814  0.34430111  0.49549532    -0.06730
C1280       C  0.63010954  0.34575770  0.47220466    -0.33700
C1281       C  0.65233791  0.36721401  0.47193019     0.35360
H1282       H  0.63473472  0.40249553  0.53614926     0.15730
O1283       O  0.59104820  0.36518735  0.54091827    -0.61200
H1284       H  0.62942563  0.32961940  0.45456159     0.15740
O1285       O  0.67301265  0.36668095  0.44976914    -0.61290
H1286       H  0.66370499  0.37723510  0.43294694     0.42740
H1287       H  0.57419734  0.37703802  0.03348742     0.42690
C1288       C  0.61024526  0.15828774  0.49721629    -0.06370
C1289       C  0.62566630  0.15201911  0.47105128    -0.33800
C1290       C  0.64777104  0.13046542  0.47040454     0.35450
C1291       C  0.65490065  0.11462371  0.49628856    -0.06730
C1292       C  0.63901359  0.12042645  0.02233716    -0.33700
C1293       C  0.61690200  0.14204194  0.02297348     0.35360
H1294       H  0.62109111  0.16434240  0.45104984     0.15730
O1295       O  0.66311244  0.12610944  0.44464008    -0.61200
H1296       H  0.64382874  0.10826802  0.04238451     0.15740
O1297       O  0.60159320  0.14663488  0.04871287    -0.61290
H1298       H  0.61441179  0.15968698  0.06078353     0.42740
H1299       H  0.65097377  0.11199884  0.43306397     0.42690
C1300       C  0.88465321  0.50133682  0.34073335    -0.06370
C1301       C  0.86733678  0.02660252  0.34521925    -0.33800
C1302       C  0.84514945  0.02701980  0.36668834     0.35450
C1303       C  0.84018758  0.50199352  0.38457460    -0.06730
C1304       C  0.85785228  0.47686243  0.38046726    -0.33700
C1305       C  0.88004108  0.47644364  0.35887817     0.35360
H1306       H  0.87037337  0.04592256  0.33143326     0.15730
O1307       O  0.82795906  0.05179611  0.36935848    -0.61200
H1308       H  0.85450839  0.45746369  0.39407205     0.15740
O1309       O  0.89698569  0.45156401  0.35571976    -0.61290
H1310       H  0.91450013  0.45487057  0.36846532     0.42740
H1311       H  0.81120227  0.04869489  0.35558807     0.42690
C1312       C  0.65434284  0.00203806  0.38513251    -0.06370
C1313       C  0.64072070  0.47536621  0.37708028    -0.33800
C1314       C  0.61859572  0.47463428  0.35542382     0.35450
C1315       C  0.60960923  0.50093671  0.34133718    -0.06730
C1316       C  0.62254491  0.02771387  0.35010552    -0.33700
C1317       C  0.64460120  0.02846104  0.37177611     0.35360
H1318       H  0.64746743  0.45483608  0.38732755     0.15730
O1319       O  0.60582503  0.44807920  0.34843263    -0.61200
H1320       H  0.61600582  0.04823705  0.33971171     0.15740
O1321       O  0.65718922  0.05508801  0.37880592    -0.61290
H1322       H  0.64434756  0.06352009  0.39442897     0.42740
H1323       H  0.61957718  0.43867701  0.33420120     0.42690
C1324       C  0.61103027  0.00156458  0.15589147    -0.06370
C1325       C  0.60331228  0.00887326  0.12678591    -0.33800
C1326       C  0.62481275  0.00899582  0.10445593     0.35450
C1327       C  0.65424248  0.00170005  0.11128204    -0.06730
C1328       C  0.66191590  0.99451075  0.14039645    -0.33700
C1329       C  0.64053577  0.99463116  0.16271508     0.35360
H1330       H  0.58059913  0.01419985  0.12136623     0.15730
O1331       O  0.61673025  0.01525722  0.07593301    -0.61200
H1332       H  0.68460632  0.98911018  0.14586090     0.15740
O1333       O  0.64867965  0.98814902  0.19118198    -0.61290
H1334       H  0.65336696  0.00744831  0.20033749     0.42740
H1335       H  0.61914492  0.03693509  0.07390709     0.42690
C1336       C  0.88367518  0.00018079  0.15511386    -0.06370
C1337       C  0.86394575  0.47631209  0.15335002    -0.33800
C1338       C  0.84138861  0.47587488  0.13221970     0.35450
C1339       C  0.83824792  0.49956796  0.11227043    -0.06730
C1340       C  0.85828208  0.02327287  0.11370836    -0.33700
C1341       C  0.88095809  0.02360978  0.13481306     0.35360
H1342       H  0.86546782  0.45824116  0.16896361     0.15730
O1343       O  0.82150419  0.45300537  0.13245193    -0.61200
H1344       H  0.85640334  0.04154107  0.09836739     0.15740
O1345       O  0.90034638  0.04688919  0.13531749    -0.61290
H1346       H  0.91720888  0.04063021  0.12283569     0.42740
H1347       H  0.83124481  0.43683413  0.12133339     0.42690
C1348       C  0.99650616  0.11331749  0.34108046    -0.06370
C1349       C  0.97024922  0.12856351  0.34741351    -0.33800
C1350       C  0.96956873  0.15080883  0.36882961     0.35450
C1351       C  0.49544366  0.15804414  0.38473064    -0.06730
C1352       C  0.52152030  0.14223549  0.37897054    -0.33700
C1353       C  0.52218042  0.11996609  0.35751841     0.35360
H1354       H  0.95023397  0.12384732  0.33513744     0.15730
O1355       O  0.94360613  0.16571818  0.37346758    -0.61200
H1356       H  0.54158905  0.14721104  0.39105691     0.15740
O1357       O  0.54813593  0.10511570  0.35267037    -0.61290
H1358       H  0.54726834  0.08765727  0.36585295     0.42740
H1359       H  0.94380611  0.18217801  0.35902777     0.42690
C1360       C  0.99729908  0.34473681  0.38550857    -0.06370
C1361       C  0.97045146  0.35392785  0.37297016    -0.33800
C1362       C  0.96975739  0.37573998  0.35110332     0.35450
C1363       C  0.99630331  0.38882228  0.34118656    -0.06730
C1364       C  0.52303464  0.38036122  0.35444642    -0.33700
C1365       C  0.52371724  0.35853609  0.37635320     0.35360
H1366       H  0.94982589  0.34375974  0.37966640     0.15730
O1367       O  0.94304369  0.38319204  0.33887530    -0.61200
H1368       H  0.54366578  0.39038317  0.34754644     0.15740
O1369       O  0.55037166  0.35107339  0.38871707    -0.61290
H1370       H  0.55941396  0.33683876  0.37474820     0.42740
H1371       H  0.93482823  0.39862327  0.35205363     0.42690
C1372       C  0.49634292  0.38851404  0.15446130    -0.06370
C1373       C  0.52263980  0.38220820  0.13923117    -0.33800
C1374       C  0.52332182  0.36078157  0.11694680     0.35450
C1375       C  0.99748592  0.34489141  0.10976732    -0.06730
C1376       C  0.97104944  0.35176002  0.12446791    -0.33700
C1377       C  0.97028274  0.37333685  0.14652656     0.35360
H1378       H  0.54286115  0.39382286  0.14468021     0.15730
O1379       O  0.54946132  0.35543661  0.10260205    -0.61200
H1380       H  0.95088659  0.33988598  0.11937638     0.15740
O1381       O  0.94415328  0.37833074  0.16104824    -0.61290
H1382       H  0.93339314  0.39286046  0.14866534     0.42740
H1383       H  0.54969815  0.36948814  0.08581903     0.42690
C1384       C  0.49833864  0.15806596  0.11019142    -0.06370
C1385       C  0.97135145  0.14861687  0.12232163    -0.33800
C1386       C  0.97050102  0.12675434  0.14412404     0.35450
C1387       C  0.49701101  0.11392572  0.15446126    -0.06730
C1388       C  0.52392337  0.12279513  0.14174684    -0.33700
C1389       C  0.52474386  0.14449896  0.11972213     0.35360
H1390       H  0.95073252  0.15855537  0.11531322     0.15730
O1391       O  0.94365521  0.11896231  0.15586213    -0.61200
H1392       H  0.54454609  0.11310499  0.14908448     0.15740
O1393       O  0.55158005  0.15261750  0.10819458    -0.61290
H1394       H  0.55483842  0.13912619  0.09126792     0.42740
H1395       H  0.93593733  0.10328387  0.14265191     0.42690
N1396       N  0.56124295  0.48667359  0.71378664    -0.07020
N1397       N  0.57862387  0.47660796  0.69263466    -0.59140
N1398       N  0.56091902  0.01551026  0.78171147    -0.06700
N1399       N  0.57771709  0.02560218  0.80332404    -0.61270
N1400       N  0.56086171  0.48649074  0.78171028    -0.06300
N1401       N  0.57756829  0.47627636  0.80332386    -0.59120
N1402       N  0.56091171  0.01571839  0.71360695    -0.05980
N1403       N  0.57782443  0.02602445  0.69216371    -0.61620
C1404       C  0.58847247  0.00138480  0.67918460     0.95150
C1405       C  0.58788369  0.50089128  0.81675466     0.94930
N1406       N  0.98253593  0.06467576  0.78148305    -0.07210
N1407       N  0.97222732  0.08147536  0.80294285    -0.59720
N1408       N  0.51176263  0.06483929  0.71363157    -0.05330
N1409       N  0.52185749  0.08188785  0.69220653    -0.60970
N1410       N  0.98270931  0.06470434  0.71361710    -0.07240
N1411       N  0.97245385  0.08165588  0.69226127    -0.59990
N1412       N  0.51160201  0.06459856  0.78172083    -0.04970
N1413       N  0.52165055  0.08128973  0.80342624    -0.61060
Mn1414     Mn  0.53698873  0.04084328  0.74767082     1.18440
C1415       C  0.99685216  0.09159946  0.81660873     0.97230
C1416       C  0.49706160  0.09219338  0.67896397     0.97900
N1417       N  0.51162221  0.43739398  0.78169168    -0.07260
N1418       N  0.52154313  0.42052200  0.80333396    -0.63570
N1419       N  0.98258482  0.43750835  0.71381257    -0.06060
N1420       N  0.97216037  0.42058203  0.69253184    -0.64240
N1421       N  0.51167070  0.43745926  0.71357692    -0.06770
N1422       N  0.52160160  0.42050698  0.69202132    -0.63830
N1423       N  0.98255283  0.43757819  0.78156790    -0.05660
N1424       N  0.97211912  0.42084084  0.80300897    -0.64520
Mn1425     Mn  0.53705555  0.46130758  0.74766229     1.10660
C1426       C  0.99662581  0.41037625  0.81652489     0.98460
C1427       C  0.49668994  0.41013718  0.67901640     0.98530
N1428       N  0.93361586  0.01546280  0.71328197    -0.06770
N1429       N  0.91667479  0.02543997  0.69170575    -0.62150
N1430       N  0.93359364  0.48657216  0.78162979    -0.06090
N1431       N  0.91692334  0.47643127  0.80332092    -0.58880
N1432       N  0.93336257  0.01557859  0.78132939    -0.07400
N1433       N  0.91642547  0.02578672  0.80273198    -0.61710
N1434       N  0.93338470  0.48644764  0.71372069    -0.06390
N1435       N  0.91614126  0.47607580  0.69262764    -0.58900
Mn1436     Mn  0.95740470  0.04075634  0.74738579     1.20190
Mn1437     Mn  0.95741461  0.46140817  0.74769644     1.10090
Cl1438     Cl  0.49725444  0.00107715  0.74756351    -0.86870
C1439       C  0.90603905  0.00060644  0.67891379     0.95460
C1440       C  0.90645309  0.50114205  0.81640463     0.95260
N1441       N  0.98348369  0.21743537  0.56152492    -0.07020
N1442       N  0.97351739  0.19589103  0.57843541    -0.59140
N1443       N  0.51229802  0.28556008  0.56095617    -0.06700
N1444       N  0.52248698  0.30726914  0.57754468    -0.61270
N1445       N  0.98321723  0.28527628  0.56130299    -0.06300
N1446       N  0.97303780  0.30672876  0.57815439    -0.59120
N1447       N  0.51253768  0.21759386  0.56135301    -0.05980
N1448       N  0.52292561  0.19612063  0.57811251    -0.61620
C1449       C  0.49833301  0.18265808  0.58857600     0.95150
C1450       C  0.99773367  0.32042206  0.58804364     0.94930
N1451       N  0.56108921  0.28479371  0.98221795    -0.07210
N1452       N  0.57794002  0.30608508  0.97160852    -0.59720
N1453       N  0.56114338  0.21734970  0.51183211    -0.05330
N1454       N  0.57812695  0.19597427  0.52204954    -0.60970
N1455       N  0.56086832  0.21708553  0.98279280    -0.07240
N1456       N  0.57778522  0.19564919  0.97266725    -0.59990
N1457       N  0.56097341  0.28541226  0.51128043    -0.04970
N1458       N  0.57757186  0.30730975  0.52105950    -0.61060
Mn1459     Mn  0.53743635  0.25152042  0.53703114     1.18440
C1460       C  0.58788236  0.32010053  0.99604559     0.97230
C1461       C  0.58828937  0.18252472  0.99740132     0.97900
N1462       N  0.93352881  0.28501390  0.51274647    -0.07260
N1463       N  0.91640988  0.30615975  0.52316775    -0.63570
N1464       N  0.93334257  0.21746944  0.98367878    -0.06060
N1465       N  0.91644402  0.19596682  0.97360495    -0.64240
N1466       N  0.93389268  0.21711475  0.51273317    -0.06770
N1467       N  0.91737823  0.19536669  0.52300883    -0.63830
N1468       N  0.93347658  0.28544875  0.98367557    -0.05660
N1469       N  0.91648554  0.30697256  0.97374022    -0.64520
Mn1470     Mn  0.95787923  0.25116251  0.53774357     1.10660
C1471       C  0.90605928  0.31989422  0.99860640     0.98460
C1472       C  0.90672204  0.18225265  0.99835110     0.98530
N1473       N  0.51106922  0.21687322  0.93389651    -0.06770
N1474       N  0.52082454  0.19532295  0.91685602    -0.62150
N1475       N  0.98248237  0.28520456  0.93404488    -0.06090
N1476       N  0.97244439  0.30694177  0.91741846    -0.58880
N1477       N  0.51157723  0.28482585  0.93375582    -0.07400
N1478       N  0.52188468  0.30635522  0.91702948    -0.61710
N1479       N  0.98195547  0.21735297  0.93400527    -0.06390
N1480       N  0.97136896  0.19617765  0.91701693    -0.58900
Mn1481     Mn  0.53680669  0.25079637  0.95749384     1.20190
Mn1482     Mn  0.95712895  0.25143728  0.95818400     1.10090
Cl1483     Cl  0.49731912  0.25120650  0.99760467    -0.86870
C1484       C  0.49582692  0.18251146  0.90648215     0.95460
C1485       C  0.99726376  0.32008601  0.90702963     0.95260
N1486       N  0.78109290  0.43745324  0.98408297    -0.07020
N1487       N  0.80268910  0.42037890  0.97445441    -0.59140
N1488       N  0.71216913  0.43771592  0.51167594    -0.06700
N1489       N  0.69049015  0.42061892  0.52117837    -0.61270
N1490       N  0.71324820  0.43752287  0.98262172    -0.06300
N1491       N  0.69251173  0.42016757  0.97176979    -0.59120
N1492       N  0.78012746  0.43703626  0.51313524    -0.05980
N1493       N  0.80086019  0.41955008  0.52382320    -0.61620
C1494       C  0.81495599  0.40953889  0.99949928     0.95150
C1495       C  0.67841141  0.40985901  0.99600242     0.94930
N1496       N  0.71203403  0.01586866  0.56114334    -0.07210
N1497       N  0.69062731  0.02620227  0.57807713    -0.59720
N1498       N  0.77957569  0.48614940  0.56239539    -0.05330
N1499       N  0.80035473  0.47561511  0.57991374    -0.60970
N1500       N  0.78024854  0.01517289  0.56219234    -0.07240
N1501       N  0.80167794  0.02496786  0.57944207    -0.59990
N1502       N  0.71184517  0.48682407  0.56124598    -0.04970
N1503       N  0.69053885  0.47678748  0.57847503    -0.61060
Mn1504     Mn  0.74585245  0.46130415  0.53774766     1.18440
C1505       C  0.67729405  0.00156845  0.58844261     0.97230
C1506       C  0.81402689  0.50002926  0.59035285     0.97900
N1507       N  0.71389534  0.48683883  0.93374357    -0.07260
N1508       N  0.69227940  0.47693334  0.91679596    -0.63570
N1509       N  0.78178930  0.01569062  0.93466086    -0.06060
N1510       N  0.80282622  0.02609047  0.91739105    -0.64240
N1511       N  0.78205317  0.48667742  0.93466074    -0.06770
N1512       N  0.80340212  0.47674565  0.91741257    -0.63830
N1513       N  0.71400186  0.01586223  0.93396609    -0.05660
N1514       N  0.69259846  0.02626762  0.91715010    -0.64520
Mn1515     Mn  0.74765765  0.46146122  0.95812074     1.10660
C1516       C  0.67910440  0.00179413  0.90660270     0.98460
C1517       C  0.81621006  0.50162010  0.90681323     0.98530
N1518       N  0.78149619  0.06455044  0.51284540    -0.06770
N1519       N  0.80289606  0.08170730  0.52291850    -0.62150
N1520       N  0.71378739  0.06497798  0.98300931    -0.06090
N1521       N  0.69280936  0.08217752  0.97239987    -0.58880
N1522       N  0.71333393  0.06505114  0.51202943    -0.07400
N1523       N  0.69190002  0.08226421  0.52176593    -0.61710
N1524       N  0.78149733  0.06449470  0.98379622    -0.06390
N1525       N  0.80274434  0.08156112  0.97351840    -0.58900
Mn1526     Mn  0.74682056  0.04083465  0.53775426     1.20190
Mn1527     Mn  0.74775937  0.04082676  0.95828476     1.10090
Cl1528     Cl  0.74698226  0.00115893  0.99799812    -0.86870
C1529       C  0.81600777  0.09215225  0.99808383     0.95460
C1530       C  0.67923333  0.09279764  0.99679297     0.95050
C1531       C  0.83921197  0.38758650  0.00000523    -0.06370
C1532       C  0.85711939  0.38389597  0.97492506    -0.33800
C1533       C  0.87942627  0.36246308  0.97434588     0.35450
C1534       C  0.88403056  0.34406415  0.99905715    -0.06730
C1535       C  0.86645853  0.34791447  0.52434990    -0.33700
C1536       C  0.84401862  0.36914698  0.52488172     0.35360
H1537       H  0.85382246  0.39766674  0.95562795     0.15730
O1538       O  0.89647609  0.35967877  0.94944990    -0.61200
H1539       H  0.86956168  0.33399335  0.54356955     0.15740
O1540       O  0.82669318  0.37146106  0.54963925    -0.61290
H1541       H  0.81010620  0.35753118  0.54638973     0.42740
H1542       H  0.91388507  0.37251151  0.95292425     0.42690
C1543       C  0.88493164  0.15785555  0.99827418    -0.06370
C1544       C  0.86817195  0.15274495  0.97270361    -0.33800
C1545       C  0.84589391  0.13137331  0.97230701     0.35450
C1546       C  0.84020032  0.11420207  0.99770688    -0.06730
C1547       C  0.85737235  0.11883503  0.52313491    -0.33700
C1548       C  0.87970493  0.14030892  0.52351382     0.35360
H1549       H  0.87170570  0.16597546  0.95307095     0.15730
O1550       O  0.82934994  0.12808954  0.94712028    -0.61200
H1551       H  0.85351902  0.10575892  0.54281148     0.15740
O1552       O  0.89612578  0.14400094  0.54871869    -0.61290
H1553       H  0.91358698  0.13104846  0.54615949     0.42740
H1554       H  0.81268543  0.14211475  0.94930484     0.42690
C1555       C  0.65438596  0.38779356  0.99518155    -0.06370
C1556       C  0.63366063  0.38667022  0.01823105    -0.33800
C1557       C  0.61129158  0.36528580  0.01836435     0.35450
C1558       C  0.60970786  0.34431234  0.99546614    -0.06730
C1559       C  0.63009632  0.34577898  0.97217330    -0.33700
C1560       C  0.65232180  0.36724062  0.97190088     0.35360
H1561       H  0.63472120  0.40250200  0.03613100     0.15730
O1562       O  0.59104249  0.36518549  0.04089720    -0.61200
H1563       H  0.62941280  0.32964440  0.95452675     0.15740
O1564       O  0.67299262  0.36671628  0.94973626    -0.61290
H1565       H  0.66367883  0.37726998  0.93291709     0.42740
H1566       H  0.57420597  0.37704001  0.53350197     0.42690
C1567       C  0.61024359  0.15830182  0.99724876    -0.06370
C1568       C  0.62565359  0.15202395  0.97107991    -0.33800
C1569       C  0.64775688  0.13047153  0.97043289     0.35450
C1570       C  0.65489501  0.11464090  0.99632052    -0.06730
C1571       C  0.63900670  0.12039987  0.52230021    -0.33700
C1572       C  0.61689333  0.14201499  0.52293613     0.35360
H1573       H  0.62107062  0.16433864  0.95107495     0.15730
O1574       O  0.66308831  0.12610590  0.94466394    -0.61200
H1575       H  0.64381286  0.10823323  0.54234467     0.15740
O1576       O  0.60157256  0.14659503  0.54867087    -0.61290
H1577       H  0.61438497  0.15964209  0.56075359     0.42740
H1578       H  0.65094662  0.11198880  0.93309892     0.42690
C1579       C  0.88464725  0.50134214  0.84073993    -0.06370
C1580       C  0.86733643  0.02661290  0.84522236    -0.33800
C1581       C  0.84514769  0.02703719  0.86668969     0.35450
C1582       C  0.84017637  0.50201465  0.88457714    -0.06730
C1583       C  0.85783533  0.47687762  0.88047377    -0.33700
C1584       C  0.88002735  0.47645144  0.85888654     0.35360
H1585       H  0.87037828  0.04593167  0.83143586     0.15730
O1586       O  0.82796299  0.05181776  0.86935594    -0.61200
H1587       H  0.85448433  0.45748076  0.89407968     0.15740
O1588       O  0.89696742  0.45156808  0.85573186    -0.61290
H1589       H  0.91448544  0.45487586  0.86847190     0.42740
H1590       H  0.81120291  0.04871583  0.85558951     0.42690
C1591       C  0.65432387  0.00207889  0.88512610    -0.06370
C1592       C  0.64070423  0.47540315  0.87707638    -0.33800
C1593       C  0.61858191  0.47466538  0.85541882     0.35450
C1594       C  0.60959469  0.50096514  0.84132870    -0.06730
C1595       C  0.62253001  0.02774507  0.85009315    -0.33700
C1596       C  0.64458425  0.02849794  0.87176410     0.35360
H1597       H  0.64745177  0.45487521  0.88732754     0.15730
O1598       O  0.60581467  0.44810784  0.84843006    -0.61200
H1599       H  0.61599050  0.04826575  0.83969474     0.15740
O1600       O  0.65717166  0.05512655  0.87878855    -0.61290
H1601       H  0.64433383  0.06355798  0.89441523     0.42740
H1602       H  0.61957051  0.43870374  0.83420362     0.42690
C1603       C  0.61104270  0.00158786  0.65588649    -0.06370
C1604       C  0.60333217  0.00892322  0.62678529    -0.33800
C1605       C  0.62483067  0.00902792  0.60445208     0.35450
C1606       C  0.65425128  0.00168192  0.61126806    -0.06730
C1607       C  0.66191776  0.99447263  0.64037980    -0.33700
C1608       C  0.64054096  0.99461466  0.66270238     0.35360
H1609       H  0.58062541  0.01428172  0.62137049     0.15730
O1610       O  0.61675352  0.01531829  0.57593400    -0.61200
H1611       H  0.68460189  0.98904157  0.64583952     0.15740
O1612       O  0.64868213  0.98811584  0.69116621    -0.61290
H1613       H  0.65338177  0.00740834  0.70032920     0.42740
H1614       H  0.61918411  0.03699590  0.57392566     0.42690
C1615       C  0.88365602  0.00018788  0.65513420    -0.06370
C1616       C  0.86395120  0.47632815  0.65336443    -0.33800
C1617       C  0.84139724  0.47588698  0.63223251     0.35450
C1618       C  0.83826249  0.49957295  0.61227507    -0.06730
C1619       C  0.85821390  0.02329035  0.61376639    -0.33700
C1620       C  0.88091400  0.02362269  0.63484395     0.35360
H1621       H  0.86547113  0.45826006  0.66898152     0.15730
O1622       O  0.82151064  0.45301952  0.63246900    -0.61200
H1623       H  0.85631865  0.04156076  0.59843011     0.15740
O1624       O  0.90030809  0.04689777  0.63532500    -0.61290
H1625       H  0.91715288  0.04063526  0.62282228     0.42740
H1626       H  0.83125114  0.43684409  0.62135603     0.42690
C1627       C  0.99650137  0.11333003  0.84108786    -0.06370
C1628       C  0.97024123  0.12857243  0.84741825    -0.33800
C1629       C  0.96955218  0.15081763  0.86883548     0.35450
C1630       C  0.49541165  0.15803870  0.88473425    -0.06730
C1631       C  0.52148632  0.14222433  0.87898016    -0.33700
C1632       C  0.52214800  0.11995625  0.85752705     0.35360
H1633       H  0.95022865  0.12385280  0.83513937     0.15730
O1634       O  0.94358615  0.16572211  0.87346815    -0.61200
H1635       H  0.54155343  0.14719540  0.89107107     0.15740
O1636       O  0.54810209  0.10510141  0.85268510    -0.61290
H1637       H  0.54722724  0.08764174  0.86586556     0.42740
H1638       H  0.94378769  0.18218364  0.85903022     0.42690
C1639       C  0.99729289  0.34474982  0.88550573    -0.06370
C1640       C  0.97044644  0.35394030  0.87296600    -0.33800
C1641       C  0.96975446  0.37574922  0.85109844     0.35450
C1642       C  0.99630168  0.38882843  0.84118276    -0.06730
C1643       C  0.52306539  0.38034671  0.85442799    -0.33700
C1644       C  0.52374781  0.35851979  0.87633392     0.35360
H1645       H  0.94981956  0.34377488  0.87966237     0.15730
O1646       O  0.94304136  0.38320143  0.83886915    -0.61200
H1647       H  0.54369803  0.39035858  0.84751799     0.15740
O1648       O  0.55040414  0.35104235  0.88868466    -0.61290
H1649       H  0.55943077  0.33680134  0.87471219     0.42740
H1650       H  0.93482311  0.39862930  0.85204980     0.42690
C1651       C  0.49636962  0.38850808  0.65446399    -0.06370
C1652       C  0.52267175  0.38218977  0.63924760    -0.33800
C1653       C  0.52335580  0.36076070  0.61696543     0.35450
C1654       C  0.99748864  0.34487904  0.60976534    -0.06730
C1655       C  0.97104947  0.35174813  0.62446255    -0.33700
C1656       C  0.97027833  0.37332878  0.64651968     0.35360
H1657       H  0.54289532  0.39379637  0.64470558     0.15730
O1658       O  0.54949976  0.35540271  0.60263386    -0.61200
H1659       H  0.95088894  0.33987020  0.61937104     0.15740
O1660       O  0.94414764  0.37832132  0.66103960    -0.61290
H1661       H  0.93338992  0.39285452  0.64865874     0.42740
H1662       H  0.54975512  0.36945910  0.58585527     0.42690
C1663       C  0.49831076  0.15805825  0.61018201    -0.06370
C1664       C  0.97137875  0.14860512  0.62232801    -0.33800
C1665       C  0.97051758  0.12674472  0.64413027     0.35450
C1666       C  0.49698339  0.11392060  0.65445303    -0.06730
C1667       C  0.52389393  0.12277820  0.64172750    -0.33700
C1668       C  0.52471428  0.14448007  0.61970188     0.35360
H1669       H  0.95076371  0.15854850  0.61531474     0.15730
O1670       O  0.94366755  0.11895982  0.65586407    -0.61200
H1671       H  0.54451584  0.11308026  0.64905715     0.15740
O1672       O  0.55154960  0.15258671  0.60816376    -0.61290
H1673       H  0.55479518  0.13909438  0.59123540     0.42740
H1674       H  0.93594806  0.10328252  0.64265355     0.42690
N1675       N  0.56123775  0.98665622  0.21379529    -0.07020
N1676       N  0.57861101  0.97658701  0.19263895    -0.59140
N1677       N  0.56092473  0.51549344  0.28172231    -0.06700
N1678       N  0.57772937  0.52558123  0.30333240    -0.61270
N1679       N  0.56086239  0.98647394  0.28172104    -0.06300
N1680       N  0.57757018  0.97625604  0.30333283    -0.59120
N1681       N  0.56091167  0.51570075  0.21361966    -0.05980
N1682       N  0.57782287  0.52600412  0.19217523    -0.61620
C1683       C  0.58846071  0.50136263  0.17919316     0.95150
C1684       C  0.58789445  0.00086836  0.31676283     0.94930
N1685       N  0.98253131  0.56467447  0.28146893    -0.07210
N1686       N  0.97222295  0.58146983  0.30293203    -0.59720
N1687       N  0.51177965  0.56483535  0.21363754    -0.05330
N1688       N  0.52187895  0.58188380  0.19221394    -0.60970
N1689       N  0.98270677  0.56470526  0.21360206    -0.07240
N1690       N  0.97245014  0.58165967  0.19224871    -0.59990
N1691       N  0.51161799  0.56459355  0.28172603    -0.04970
N1692       N  0.52167110  0.58128404  0.30342955    -0.61060
Mn1693     Mn  0.53699845  0.54083199  0.24767981     1.18440
C1694       C  0.99684888  0.59159039  0.31659839     0.97230
C1695       C  0.49708573  0.59219529  0.17897050     0.97900
N1696       N  0.51160581  0.93738964  0.28169723    -0.07260
N1697       N  0.52152202  0.92051619  0.30334010    -0.63570
N1698       N  0.98259154  0.93750926  0.21381730    -0.06060
N1699       N  0.97216761  0.92058434  0.19253607    -0.64240
N1700       N  0.51165559  0.93745439  0.21358157    -0.06770
N1701       N  0.52158227  0.92050221  0.19202373    -0.63830
N1702       N  0.98255833  0.93757621  0.28157252    -0.05660
N1703       N  0.97212437  0.92083643  0.30301229    -0.64520
Mn1704     Mn  0.53704651  0.96129636  0.24767012     1.10660
C1705       C  0.99663050  0.91037113  0.31652920     0.98460
C1706       C  0.49666809  0.91013979  0.17901717     0.98530
N1707       N  0.93361270  0.51545606  0.21327065    -0.06770
N1708       N  0.91666830  0.52542958  0.19169510    -0.62150
N1709       N  0.93360101  0.98657149  0.28162863    -0.06090
N1710       N  0.91693145  0.97642996  0.30331922    -0.58880
N1711       N  0.93336141  0.51557765  0.28131873    -0.07400
N1712       N  0.91642471  0.52578554  0.30272188    -0.61710
N1713       N  0.93338349  0.98644352  0.21372229    -0.06390
N1714       N  0.91613978  0.97607049  0.19262957    -0.58900
Mn1715     Mn  0.95740179  0.54075446  0.24737240     1.20190
Mn1716     Mn  0.95741963  0.96140671  0.24769865     1.10090
Cl1717     Cl  0.49725416  0.50107553  0.24757017    -0.86870
C1718       C  0.90603165  0.50059420  0.17890680     0.95460
C1719       C  0.90645873  0.00114010  0.31640110     0.95260
N1720       N  0.98343088  0.71747339  0.06151730    -0.07020
N1721       N  0.97346973  0.69592618  0.07843225    -0.59140
N1722       N  0.51228297  0.78557669  0.06094834    -0.06700
N1723       N  0.52246418  0.80729290  0.07753122    -0.61270
N1724       N  0.98318287  0.78531909  0.06128547    -0.06300
N1725       N  0.97301609  0.80677167  0.07814187    -0.59120
N1726       N  0.51254695  0.71760933  0.06136161    -0.05980
N1727       N  0.52294386  0.69614376  0.07812669    -0.61620
C1728       C  0.49835632  0.68266445  0.08858246     0.95150
C1729       C  0.99771937  0.82044533  0.08803763     0.94930
N1730       N  0.56108744  0.78480240  0.48223123    -0.07210
N1731       N  0.57793508  0.80609896  0.47162933    -0.59720
N1732       N  0.56114217  0.71736905  0.01184384    -0.05330
N1733       N  0.57813042  0.69600152  0.02206993    -0.60970
N1734       N  0.56088025  0.71709255  0.48278055    -0.07240
N1735       N  0.57779843  0.69566017  0.47264590    -0.59990
N1736       N  0.56096180  0.78542913  0.01126676    -0.04970
N1737       N  0.57755672  0.80733229  0.02103806    -0.61060
Mn1738     Mn  0.53743000  0.75154843  0.03702996     1.18440
C1739       C  0.58788773  0.82009640  0.49607158     0.97230
C1740       C  0.58829282  0.68251564  0.49737451     0.97900
N1741       N  0.93335724  0.78520517  0.01274622    -0.07260
N1742       N  0.91620444  0.80640741  0.02312206    -0.63570
N1743       N  0.93340249  0.71741353  0.48368164    -0.06060
N1744       N  0.91648088  0.69592903  0.47360651    -0.64240
N1745       N  0.93382835  0.71717428  0.01273017    -0.06770
N1746       N  0.91733720  0.69540891  0.02300840    -0.63830
N1747       N  0.93354434  0.78537406  0.48369220    -0.05660
N1748       N  0.91651870  0.80686558  0.47375927    -0.64520
Mn1749     Mn  0.95780805  0.75123683  0.03773388     1.10660
C1750       C  0.90607815  0.81976663  0.49862706     0.98460
C1751       C  0.90674716  0.68222123  0.49835152     0.98530
N1752       N  0.51108502  0.71688475  0.43389182    -0.06770
N1753       N  0.52084845  0.69534187  0.41684594    -0.62150
N1754       N  0.98251138  0.78517192  0.43404136    -0.06090
N1755       N  0.97246374  0.80690843  0.41741806    -0.58880
N1756       N  0.51156892  0.78483767  0.43376521    -0.07400
N1757       N  0.52186755  0.80637405  0.41704336    -0.61710
N1758       N  0.98199898  0.71732303  0.43400172    -0.06390
N1759       N  0.97140653  0.69615217  0.41701395    -0.58900
Mn1760     Mn  0.53681002  0.75081747  0.45749536     1.20190
Mn1761     Mn  0.95718049  0.75138855  0.45818845     1.10090
Cl1762     Cl  0.49732472  0.75121094  0.49761207    -0.86870
C1763       C  0.49585499  0.68251418  0.40648113     0.95460
C1764       C  0.99727775  0.82006494  0.40702960     0.95260
N1765       N  0.78107402  0.93731877  0.48408419    -0.07020
N1766       N  0.80254929  0.92009993  0.47444416    -0.59140
N1767       N  0.71209821  0.93779623  0.01167078    -0.06700
N1768       N  0.69046208  0.92065223  0.02117279    -0.61270
N1769       N  0.71326343  0.93748382  0.48263487    -0.06300
N1770       N  0.69252250  0.92013360  0.47178700    -0.59120
N1771       N  0.77963975  0.93747287  0.01308167    -0.05980
N1772       N  0.80061495  0.92040691  0.02386270    -0.61620
C1773       C  0.81475229  0.90916847  0.49948030     0.95150
C1774       C  0.67842724  0.90982844  0.49602322     0.94930
N1775       N  0.71200397  0.51590641  0.06115297    -0.07210
N1776       N  0.69060594  0.52623593  0.07810024    -0.59720
N1777       N  0.77954570  0.98619451  0.06239208    -0.05330
N1778       N  0.80035823  0.97563350  0.07986709    -0.60970
N1779       N  0.78022056  0.51520794  0.06221144    -0.07240
N1780       N  0.80166161  0.52498913  0.07945505    -0.59990
N1781       N  0.71180974  0.98688065  0.06127477    -0.04970
N1782       N  0.69051000  0.97682251  0.07848538    -0.61060
Mn1783     Mn  0.74567350  0.96145950  0.03775384     1.18440
C1784       C  0.67726759  0.50159848  0.08845178     0.97230
C1785       C  0.81407622  0.00003451  0.09029046     0.97900
N1786       N  0.71392222  0.98679270  0.43374769    -0.07260
N1787       N  0.69230434  0.97688871  0.41680049    -0.63570
N1788       N  0.78180997  0.51563755  0.43467187    -0.06060
N1789       N  0.80283370  0.52605245  0.41739528    -0.64240
N1790       N  0.78208467  0.98662869  0.43467704    -0.06770
N1791       N  0.80343327  0.97670656  0.41742234    -0.63830
N1792       N  0.71403449  0.51580376  0.43397465    -0.05660
N1793       N  0.69262680  0.52621495  0.41715780    -0.64520
Mn1794     Mn  0.74767752  0.96140236  0.45812847     1.10660
C1795       C  0.67913156  0.50174598  0.40660959     0.98460
C1796       C  0.81622716  0.00158700  0.40681715     0.98530
N1797       N  0.78148288  0.56457553  0.01285445    -0.06770
N1798       N  0.80289260  0.58172012  0.02292780    -0.62150
N1799       N  0.71379203  0.56494431  0.48298901    -0.06090
N1800       N  0.69282095  0.58215179  0.47237420    -0.58880
N1801       N  0.71332526  0.56508490  0.01203871    -0.07400
N1802       N  0.69188938  0.58229118  0.02177897    -0.61710
N1803       N  0.78150481  0.56446682  0.48379023    -0.06390
N1804       N  0.80274445  0.58154404  0.47351353    -0.58900
Mn1805     Mn  0.74680090  0.54087134  0.03776624     1.20190
Mn1806     Mn  0.74777511  0.54077881  0.45828369     1.10090
Cl1807     Cl  0.74704878  0.50107097  0.49799930    -0.86870
C1808       C  0.81599940  0.59214421  0.49807994     0.95460
C1809       C  0.67924047  0.59277627  0.49676414     0.95050
C1810       C  0.83897765  0.88718086  0.49996804    -0.06370
C1811       C  0.85686495  0.88349430  0.47487299    -0.33800
C1812       C  0.87927929  0.86217974  0.47433322     0.35450
C1813       C  0.88396137  0.84384006  0.49906840    -0.06730
C1814       C  0.86614838  0.84881554  0.02419505    -0.33700
C1815       C  0.84421026  0.87055667  0.02496222     0.35360
H1816       H  0.85351512  0.89722411  0.45555645     0.15730
O1817       O  0.89639922  0.85949199  0.44947410    -0.61200
H1818       H  0.86876818  0.83459064  0.04321147     0.15740
O1819       O  0.82638408  0.87231627  0.04944227    -0.61290
H1820       H  0.81033016  0.85807226  0.04586818     0.42740
H1821       H  0.91373567  0.87241346  0.45299535     0.42690
C1822       C  0.88493566  0.65784103  0.49827450    -0.06370
C1823       C  0.86817409  0.65273595  0.47270327    -0.33800
C1824       C  0.84589052  0.63136811  0.47230506     0.35450
C1825       C  0.84019049  0.61419815  0.49770499    -0.06730
C1826       C  0.85738004  0.61883815  0.02313935    -0.33700
C1827       C  0.87970796  0.64031744  0.02351561     0.35360
H1828       H  0.87171497  0.66596382  0.45307006     0.15730
O1829       O  0.82935165  0.62808267  0.44711518    -0.61200
H1830       H  0.85353072  0.60576138  0.04281632     0.15740
O1831       O  0.89613141  0.64401386  0.04871820    -0.61290
H1832       H  0.91359210  0.63106084  0.04615963     0.42740
H1833       H  0.81268763  0.64210939  0.44929449     0.42690
C1834       C  0.65440069  0.88777062  0.49520631    -0.06370
C1835       C  0.63367333  0.88665862  0.51825376    -0.33800
C1836       C  0.61130131  0.86527860  0.51838931     0.35450
C1837       C  0.60971814  0.84430111  0.49549533    -0.06730
C1838       C  0.63010954  0.84575771  0.47220466    -0.33700
C1839       C  0.65233791  0.86721401  0.47193021     0.35360
H1840       H  0.63473473  0.90249549  0.53614931     0.15730
O1841       O  0.59104820  0.86518732  0.54091830    -0.61200
H1842       H  0.62942562  0.82961941  0.45456158     0.15740
O1843       O  0.67301264  0.86668097  0.44976915    -0.61290
H1844       H  0.66370498  0.87723512  0.43294696     0.42740
H1845       H  0.57419750  0.87703883  0.03348887     0.42690
C1846       C  0.61024531  0.65828774  0.49721629    -0.06370
C1847       C  0.62566634  0.65201911  0.47105128    -0.33800
C1848       C  0.64777109  0.63046542  0.47040452     0.35450
C1849       C  0.65490072  0.61462370  0.49628853    -0.06730
C1850       C  0.63900978  0.62042733  0.02232728    -0.33700
C1851       C  0.61689963  0.64204353  0.02296740     0.35360
H1852       H  0.62109114  0.66434240  0.45104984     0.15730
O1853       O  0.66311247  0.62610944  0.44464006    -0.61200
H1854       H  0.64382574  0.60826708  0.04237335     0.15740
O1855       O  0.60159335  0.64663543  0.04870855    -0.61290
H1856       H  0.61441350  0.65968625  0.06077885     0.42740
H1857       H  0.65097381  0.61199883  0.43306396     0.42690
C1858       C  0.88465354  0.00133625  0.34073549    -0.06370
C1859       C  0.86733679  0.52660311  0.34521829    -0.33800
C1860       C  0.84515000  0.52702016  0.36668802     0.35450
C1861       C  0.84018676  0.00199333  0.38457505    -0.06730
C1862       C  0.85785113  0.97686199  0.38046815    -0.33700
C1863       C  0.88004042  0.97644297  0.35887979     0.35360
H1864       H  0.87037279  0.54592324  0.33143230     0.15730
O1865       O  0.82795943  0.55179630  0.36935851    -0.61200
H1866       H  0.85450678  0.95746332  0.39407293     0.15740
O1867       O  0.89698484  0.95156314  0.35572184    -0.61290
H1868       H  0.91449962  0.95487007  0.36846688     0.42740
H1869       H  0.81120259  0.54869506  0.35558816     0.42690
C1870       C  0.65434294  0.50203801  0.38513257    -0.06370
C1871       C  0.64072056  0.97536629  0.37708022    -0.33800
C1872       C  0.61859556  0.97463439  0.35542375     0.35450
C1873       C  0.60960911  0.00093684  0.34133708    -0.06730
C1874       C  0.62254502  0.52771377  0.35010556    -0.33700
C1875       C  0.64460129  0.52846098  0.37177614     0.35360
H1876       H  0.64746727  0.95483614  0.38732748     0.15730
O1877       O  0.60582486  0.94807932  0.34843254    -0.61200
H1878       H  0.61600587  0.54823694  0.33971176     0.15740
O1879       O  0.65718924  0.55508797  0.37880597    -0.61290
H1880       H  0.64434754  0.56352004  0.39442900     0.42740
H1881       H  0.61957707  0.93867708  0.33420120     0.42690
C1882       C  0.61102550  0.50156498  0.15589463    -0.06370
C1883       C  0.60330183  0.50886933  0.12678990    -0.33800
C1884       C  0.62479878  0.50899235  0.10445733     0.35450
C1885       C  0.65423064  0.50170032  0.11127942    -0.06730
C1886       C  0.66190966  0.49451690  0.14039422    -0.33700
C1887       C  0.64053272  0.49463690  0.16271584     0.35360
H1888       H  0.58058711  0.51419213  0.12137290     0.15730
O1889       O  0.61671145  0.51524989  0.07593500    -0.61200
H1890       H  0.68460162  0.48912017  0.14585576     0.15740
O1891       O  0.64868098  0.48815883  0.19118254    -0.61290
H1892       H  0.65336549  0.50745978  0.20033591     0.42740
H1893       H  0.61913238  0.53692659  0.07390370     0.42690
C1894       C  0.88364933  0.50017311  0.15512434    -0.06370
C1895       C  0.86397013  0.97632276  0.15332838    -0.33800
C1896       C  0.84143696  0.97587946  0.13217346     0.35450
C1897       C  0.83832250  0.99956134  0.11220748    -0.06730
C1898       C  0.85820431  0.52328072  0.11376030    -0.33700
C1899       C  0.88090673  0.52360904  0.13483523     0.35360
H1900       H  0.86547082  0.95825937  0.16895287     0.15730
O1901       O  0.82154384  0.95301787  0.13240081    -0.61200
H1902       H  0.85630793  0.54155410  0.09842777     0.15740
O1903       O  0.90029998  0.54688460  0.13531765    -0.61290
H1904       H  0.91714585  0.54062259  0.12281582     0.42740
H1905       H  0.83129244  0.93683270  0.12130687     0.42690
C1906       C  0.99650295  0.61331605  0.34107865    -0.06370
C1907       C  0.97024673  0.62856283  0.34741258    -0.33800
C1908       C  0.96956742  0.65080832  0.36882872     0.35450
C1909       C  0.49544364  0.65804426  0.38473077    -0.06730
C1910       C  0.52152025  0.64223558  0.37897065    -0.33700
C1911       C  0.52218026  0.61996617  0.35751857     0.35360
H1912       H  0.95023103  0.62384708  0.33513709     0.15730
O1913       O  0.94360527  0.66571822  0.37346728    -0.61200
H1914       H  0.54158904  0.64721111  0.39105697     0.15740
O1915       O  0.54813574  0.60511575  0.35267042    -0.61290
H1916       H  0.54726820  0.58765732  0.36585302     0.42740
H1917       H  0.94380541  0.68217817  0.35902759     0.42690
C1918       C  0.99729993  0.84473606  0.38550992    -0.06370
C1919       C  0.97045264  0.85392741  0.37297118    -0.33800
C1920       C  0.96975937  0.87573946  0.35110440     0.35450
C1921       C  0.99630583  0.88882123  0.34118819    -0.06730
C1922       C  0.52303487  0.88036133  0.35444629    -0.33700
C1923       C  0.52371734  0.85853620  0.37635310     0.35360
H1924       H  0.94982680  0.84375956  0.37966703     0.15730
O1925       O  0.94304600  0.88319185  0.33887580    -0.61200
H1926       H  0.54366606  0.89038322  0.34754638     0.15740
O1927       O  0.55037171  0.85107346  0.38871705    -0.61290
H1928       H  0.55941402  0.83683880  0.37474822     0.42740
H1929       H  0.93483023  0.89862289  0.35205415     0.42690
C1930       C  0.49634285  0.88851416  0.15446141    -0.06370
C1931       C  0.52263970  0.88220832  0.13923129    -0.33800
C1932       C  0.52332161  0.86078176  0.11694696     0.35450
C1933       C  0.99748553  0.84489170  0.10976781    -0.06730
C1934       C  0.97104911  0.85176053  0.12446855    -0.33700
C1935       C  0.97028250  0.87333739  0.14652739     0.35360
H1936       H  0.54286109  0.89382292  0.14468030     0.15730
O1937       O  0.54946109  0.85543674  0.10260219    -0.61200
H1938       H  0.95088623  0.83988655  0.11937703     0.15740
O1939       O  0.94415306  0.87833144  0.16104902    -0.61290
H1940       H  0.93339313  0.89286137  0.14866621     0.42740
H1941       H  0.54969798  0.86948838  0.08581927     0.42690
C1942       C  0.49833897  0.65806626  0.11019131    -0.06370
C1943       C  0.97135197  0.64861751  0.12232063    -0.33800
C1944       C  0.97050133  0.62675501  0.14412277     0.35450
C1945       C  0.49701122  0.61392580  0.15446127    -0.06730
C1946       C  0.52392359  0.62279526  0.14174684    -0.33700
C1947       C  0.52474413  0.64449916  0.11972209     0.35360
H1948       H  0.95073310  0.65855606  0.11531213     0.15730
O1949       O  0.94365537  0.61896308  0.15586062    -0.61200
H1950       H  0.54454629  0.61310511  0.14908453     0.15740
O1951       O  0.55158033  0.65261770  0.10819457    -0.61290
H1952       H  0.55483866  0.63912649  0.09126782     0.42740
H1953       H  0.93593827  0.60328344  0.14265131     0.42690
N1954       N  0.56124355  0.98667362  0.71378726    -0.07020
N1955       N  0.57862422  0.97660797  0.69263509    -0.59140
N1956       N  0.56091798  0.51551014  0.78171039    -0.06700
N1957       N  0.57771558  0.52560208  0.80332315    -0.61270
N1958       N  0.56086272  0.98649082  0.78171143    -0.06300
N1959       N  0.57756973  0.97627653  0.80332485    -0.59120
N1960       N  0.56091119  0.51571837  0.71360642    -0.05980
N1961       N  0.57782427  0.52602445  0.69216347    -0.61620
C1962       C  0.58847237  0.50138481  0.67918441     0.95150
C1963       C  0.58788555  0.00089144  0.81675557     0.94930
N1964       N  0.98253597  0.56467567  0.78148295    -0.07210
N1965       N  0.97222736  0.58147525  0.80294275    -0.59720
N1966       N  0.51176231  0.56483938  0.71363133    -0.05330
N1967       N  0.52185724  0.58188790  0.69220632    -0.60970
N1968       N  0.98270937  0.56470431  0.71361706    -0.07240
N1969       N  0.97245391  0.58165587  0.69226125    -0.59990
N1970       N  0.51160183  0.56459873  0.78172063    -0.04970
N1971       N  0.52165050  0.58128984  0.80342605    -0.61060
Mn1972     Mn  0.53698822  0.54084332  0.74767028     1.18440
C1973       C  0.99685222  0.59159930  0.81660862     0.97230
C1974       C  0.49706138  0.59219350  0.67896382     0.97900
N1975       N  0.51162242  0.93739422  0.78169195    -0.07260
N1976       N  0.52154320  0.92052219  0.80333420    -0.63570
N1977       N  0.98258480  0.93750834  0.71381264    -0.06060
N1978       N  0.97216035  0.92058203  0.69253190    -0.64240
N1979       N  0.51167107  0.93745937  0.71357722    -0.06770
N1980       N  0.52160191  0.92050703  0.69202160    -0.63830
N1981       N  0.98255280  0.93757815  0.78156804    -0.05660
N1982       N  0.97211910  0.92084077  0.80300910    -0.64520
Mn1983     Mn  0.53705609  0.96130770  0.74766291     1.10660
C1984       C  0.99662577  0.91037613  0.81652502     0.98460
C1985       C  0.49669022  0.91013729  0.67901661     0.98530
N1986       N  0.93361591  0.51546279  0.71328190    -0.06770
N1987       N  0.91667481  0.52543997  0.69170571    -0.62150
N1988       N  0.93359357  0.98657220  0.78162987    -0.06090
N1989       N  0.91692323  0.97643132  0.80332097    -0.58880
N1990       N  0.93336265  0.51557855  0.78132932    -0.07400
N1991       N  0.91642559  0.52578667  0.80273194    -0.61710
N1992       N  0.93338465  0.98644764  0.71372077    -0.06390
N1993       N  0.91614123  0.97607580  0.69262770    -0.58900
Mn1994     Mn  0.95740475  0.54075630  0.74738572     1.20190
Mn1995     Mn  0.95741457  0.96140816  0.74769654     1.10090
Cl1996     Cl  0.49725405  0.50107714  0.74756315    -0.86870
C1997       C  0.90603906  0.50060644  0.67891375     0.95460
C1998       C  0.90645295  0.00114209  0.81640467     0.95260
N1999       N  0.98348370  0.71743533  0.56152498    -0.07020
N2000       N  0.97351740  0.69589099  0.57843546    -0.59140
N2001       N  0.51229802  0.78556013  0.56095620    -0.06700
N2002       N  0.52248698  0.80726917  0.57754471    -0.61270
N2003       N  0.98321723  0.78527624  0.56130294    -0.06300
N2004       N  0.97303781  0.80672872  0.57815436    -0.59120
N2005       N  0.51253770  0.71759390  0.56135300    -0.05980
N2006       N  0.52292563  0.69612067  0.57811249    -0.61620
C2007       C  0.49833303  0.68265813  0.58857596     0.95150
C2008       C  0.99773368  0.82042203  0.58804362     0.94930
N2009       N  0.56108992  0.78479673  0.98221810    -0.07210
N2010       N  0.57794193  0.80608785  0.97160939    -0.59720
N2011       N  0.56114340  0.71734972  0.51183211    -0.05330
N2012       N  0.57812698  0.69597428  0.52204954    -0.60970
N2013       N  0.56086673  0.71708887  0.98279271    -0.07240
N2014       N  0.57778229  0.69565242  0.97266614    -0.59990
N2015       N  0.56097342  0.78541227  0.51128043    -0.04970
N2016       N  0.57757187  0.80730976  0.52105951    -0.61060
Mn2017     Mn  0.53743636  0.75152045  0.53703114     1.18440
C2018       C  0.58788433  0.82010281  0.99604697     0.97230
C2019       C  0.58828660  0.68252737  0.99739949     0.97900
N2020       N  0.93352885  0.78501370  0.51274639    -0.07260
N2021       N  0.91641000  0.80615964  0.52316763    -0.63570
N2022       N  0.93334023  0.71746936  0.98367934    -0.06060
N2023       N  0.91644259  0.69596470  0.97360572    -0.64240
N2024       N  0.93389266  0.71711456  0.51273324    -0.06770
N2025       N  0.91737812  0.69536659  0.52300894    -0.63830
N2026       N  0.93339240  0.78555574  0.98369202    -0.05660
N2027       N  0.91636385  0.80710204  0.97376688    -0.64520
Mn2028     Mn  0.95787924  0.75116239  0.53774357     1.10660
C2029       C  0.90580389  0.82008640  0.99859294     0.98460
C2030       C  0.90672045  0.68225029  0.99835208     0.98530
N2031       N  0.51106934  0.71687457  0.93389638    -0.06770
N2032       N  0.52082484  0.69532416  0.91685603    -0.62150
N2033       N  0.98248153  0.78520474  0.93404474    -0.06090
N2034       N  0.97244430  0.80694127  0.91741809    -0.58880
N2035       N  0.51157685  0.78482718  0.93375596    -0.07400
N2036       N  0.52188426  0.80635638  0.91702954    -0.61710
N2037       N  0.98195467  0.71735326  0.93400730    -0.06390
N2038       N  0.97136932  0.69617721  0.91701749    -0.58900
Mn2039     Mn  0.53680640  0.75079882  0.95749388     1.20190
Mn2040     Mn  0.95711616  0.75145476  0.95818990     1.10090
Cl2041     Cl  0.49731896  0.75120800  0.99760474    -0.86870
C2042       C  0.49582731  0.68251209  0.90648241     0.95460
C2043       C  0.99726359  0.82008546  0.90702968     0.95260
N2044       N  0.78063639  0.93770107  0.98404933    -0.07020
N2045       N  0.80240169  0.92084431  0.97450018    -0.59140
N2046       N  0.71216911  0.93771586  0.51167603    -0.06700
N2047       N  0.69049016  0.92061883  0.52117845    -0.61270
N2048       N  0.71319762  0.93756175  0.98262591    -0.06300
N2049       N  0.69250000  0.92016766  0.97177943    -0.59120
N2050       N  0.78012748  0.93703625  0.51313528    -0.05980
N2051       N  0.80086024  0.91955008  0.52382320    -0.61620
C2052       C  0.81479355  0.91031284  0.99958758     0.95150
C2053       C  0.67841598  0.90985060  0.99601526     0.94930
N2054       N  0.71203411  0.51586870  0.56114333    -0.07210
N2055       N  0.69062747  0.52620234  0.57807721    -0.59720
N2056       N  0.77957569  0.98614941  0.56239541    -0.05330
N2057       N  0.80035476  0.97561513  0.57991374    -0.60970
N2058       N  0.78024858  0.51517288  0.56219230    -0.07240
N2059       N  0.80167797  0.52496784  0.57944204    -0.59990
N2060       N  0.71184520  0.98682403  0.56124606    -0.04970
N2061       N  0.69053891  0.97678740  0.57847513    -0.61060
Mn2062     Mn  0.74585246  0.96130412  0.53774773     1.18440
C2063       C  0.67729411  0.50156855  0.58844261     0.97230
C2064       C  0.81402689  0.00002929  0.59035286     0.97900
N2065       N  0.71387239  0.98685906  0.93372754    -0.07260
N2066       N  0.69226677  0.97693810  0.91678987    -0.63570
N2067       N  0.78178932  0.51568494  0.93465998    -0.06060
N2068       N  0.80282301  0.52609177  0.91738999    -0.64240
N2069       N  0.78202819  0.98668611  0.93465547    -0.06770
N2070       N  0.80338834  0.97674409  0.91741689    -0.63830
N2071       N  0.71400925  0.51585029  0.93396896    -0.05660
N2072       N  0.69260324  0.52626063  0.91714930    -0.64520
Mn2073     Mn  0.74750598  0.96154773  0.95808226     1.10660
C2074       C  0.67910855  0.50179019  0.90660260     0.98460
C2075       C  0.81620838  0.00161657  0.90681618     0.98530
N2076       N  0.78149625  0.56455037  0.51284532    -0.06770
N2077       N  0.80289607  0.58170726  0.52291845    -0.62150
N2078       N  0.71378107  0.56497987  0.98299824    -0.06090
N2079       N  0.69280557  0.58218211  0.97238678    -0.58880
N2080       N  0.71333404  0.56505110  0.51202933    -0.07400
N2081       N  0.69190012  0.58226417  0.52176584    -0.61710
N2082       N  0.78149085  0.56449339  0.98379875    -0.06390
N2083       N  0.80274006  0.58155827  0.97352297    -0.58900
Mn2084     Mn  0.74682063  0.54083462  0.53775419     1.20190
Mn2085     Mn  0.74775672  0.54082215  0.95828284     1.10090
Cl2086     Cl  0.74701849  0.50112217  0.99799891    -0.86870
C2087       C  0.81600090  0.59215043  0.99808920     0.95460
C2088       C  0.67922672  0.59280075  0.99677933     0.95050
C2089       C  0.83952230  0.88888922  0.00023587    -0.06370
C2090       C  0.85712599  0.88488249  0.97498860    -0.33800
C2091       C  0.87912276  0.86302241  0.97432957     0.35450
C2092       C  0.88369230  0.84452531  0.99898766    -0.06730
C2093       C  0.86645861  0.84791441  0.52434981    -0.33700
C2094       C  0.84401870  0.86914694  0.52488165     0.35360
H2095       H  0.85339970  0.89830653  0.95546107     0.15730
O2096       O  0.89606162  0.85993957  0.94946852    -0.61200
H2097       H  0.86956177  0.83399329  0.54356946     0.15740
O2098       O  0.82669328  0.87146103  0.54963920    -0.61290
H2099       H  0.81010627  0.85753118  0.54638968     0.42740
H2100       H  0.91368061  0.87252882  0.95301884     0.42690
C2101       C  0.88492879  0.65785298  0.99827615    -0.06370
C2102       C  0.86816863  0.65274122  0.97270607    -0.33800
C2103       C  0.84588965  0.63137002  0.97231077     0.35450
C2104       C  0.84019470  0.61420029  0.99771182    -0.06730
C2105       C  0.85737232  0.61883495  0.52313494    -0.33700
C2106       C  0.87970488  0.64030883  0.52351389     0.35360
H2107       H  0.87170284  0.66597048  0.95307264     0.15730
O2108       O  0.82934621  0.62808516  0.94712383    -0.61200
H2109       H  0.85351898  0.60575881  0.54281150     0.15740
O2110       O  0.89612573  0.64400083  0.54871876    -0.61290
H2111       H  0.91358698  0.63104842  0.54615952     0.42740
H2112       H  0.81268304  0.64211230  0.94930624     0.42690
C2113       C  0.65439067  0.88779268  0.99519243    -0.06370
C2114       C  0.63366364  0.88667036  0.01824001    -0.33800
C2115       C  0.61129323  0.86528723  0.01836940     0.35450
C2116       C  0.60971004  0.84431535  0.99546940    -0.06730
C2117       C  0.63009955  0.84578407  0.97217760    -0.33700
C2118       C  0.65232573  0.86724478  0.97190854     0.35360
H2119       H  0.63472380  0.90250070  0.03614144     0.15730
O2120       O  0.59104201  0.86518643  0.04090021    -0.61200
H2121       H  0.62941626  0.82965158  0.95452923     0.15740
O2122       O  0.67299686  0.86672319  0.94974396    -0.61290
H2123       H  0.66368215  0.87727634  0.93292503     0.42740
H2124       H  0.57420598  0.87704000  0.53350200     0.42690
C2125       C  0.61024024  0.65830519  0.99724439    -0.06370
C2126       C  0.62564850  0.65202977  0.97107388    -0.33800
C2127       C  0.64775099  0.63047712  0.97042335     0.35450
C2128       C  0.65488918  0.61464379  0.99630879    -0.06730
C2129       C  0.63900678  0.62039987  0.52230019    -0.33700
C2130       C  0.61689340  0.64201499  0.52293612     0.35360
H2131       H  0.62106484  0.66434657  0.95107039     0.15730
O2132       O  0.66308154  0.62611395  0.94465352    -0.61200
H2133       H  0.64381296  0.60823323  0.54234465     0.15740
O2134       O  0.60157264  0.64659503  0.54867088    -0.61290
H2135       H  0.61438504  0.65964212  0.56075358     0.42740
H2136       H  0.65094122  0.61199506  0.93308918     0.42690
C2137       C  0.88464708  0.00134216  0.84073994    -0.06370
C2138       C  0.86733663  0.52661291  0.84522228    -0.33800
C2139       C  0.84514805  0.52703753  0.86668951     0.35450
C2140       C  0.84017560  0.00201307  0.88457752    -0.06730
C2141       C  0.85783506  0.97687723  0.88047370    -0.33700
C2142       C  0.88002717  0.97645139  0.85888650     0.35360
H2143       H  0.87037840  0.54593161  0.83143571     0.15730
O2144       O  0.82796323  0.55181791  0.86935581    -0.61200
H2145       H  0.85448402  0.95748052  0.89407964     0.15740
O2146       O  0.89696733  0.95156809  0.85573183    -0.61290
H2147       H  0.91448525  0.95487587  0.86847200     0.42740
H2148       H  0.81120315  0.54871588  0.85558940     0.42690
C2149       C  0.65432311  0.50207792  0.88512440    -0.06370
C2150       C  0.64070630  0.97540335  0.87707792    -0.33800
C2151       C  0.61858437  0.97466554  0.85542003     0.35450
C2152       C  0.60959714  0.00096528  0.84132970    -0.06730
C2153       C  0.62252724  0.52774502  0.85009197    -0.33700
C2154       C  0.64458199  0.52849780  0.87176252     0.35360
H2155       H  0.64745348  0.95487523  0.88732924     0.15730
O2156       O  0.60581696  0.94810809  0.84843143    -0.61200
H2157       H  0.61598748  0.54826573  0.83969363     0.15740
O2158       O  0.65716923  0.55512655  0.87878658    -0.61290
H2159       H  0.64433210  0.56355758  0.89441405     0.42740
H2160       H  0.61957240  0.93870412  0.83420449     0.42690
C2161       C  0.61104269  0.50158790  0.65588640    -0.06370
C2162       C  0.60333177  0.50892108  0.62678477    -0.33800
C2163       C  0.62483030  0.50902584  0.60445160     0.35450
C2164       C  0.65425135  0.50168205  0.61126806    -0.06730
C2165       C  0.66191823  0.49447491  0.64038024    -0.33700
C2166       C  0.64054136  0.49461689  0.66270276     0.35360
H2167       H  0.58062469  0.51427791  0.62136962     0.15730
O2168       O  0.61675284  0.51531424  0.57593318    -0.61200
H2169       H  0.68460267  0.48904549  0.64584029     0.15740
O2170       O  0.64868281  0.48811997  0.69116695    -0.61290
H2171       H  0.65338141  0.50741320  0.70032895     0.42740
H2172       H  0.61918231  0.53699186  0.57392366     0.42690
C2173       C  0.88365601  0.50018788  0.65513418    -0.06370
C2174       C  0.86395117  0.97632818  0.65336447    -0.33800
C2175       C  0.84139720  0.97588702  0.63223254     0.35450
C2176       C  0.83826249  0.99957297  0.61227508    -0.06730
C2177       C  0.85821387  0.52329035  0.61376640    -0.33700
C2178       C  0.88091396  0.52362271  0.63484396     0.35360
H2179       H  0.86547107  0.95826010  0.66898158     0.15730
O2180       O  0.82151057  0.95301960  0.63246906    -0.61200
H2181       H  0.85631859  0.54156077  0.59843014     0.15740
O2182       O  0.90030802  0.54689781  0.63532503    -0.61290
H2183       H  0.91715283  0.54063533  0.62282231     0.42740
H2184       H  0.83125104  0.93684413  0.62135612     0.42690
C2185       C  0.99650148  0.61332981  0.84108771    -0.06370
C2186       C  0.97024136  0.62857224  0.84741810    -0.33800
C2187       C  0.96955241  0.65081743  0.86883529     0.35450
C2188       C  0.49541203  0.65803911  0.88473448    -0.06730
C2189       C  0.52148662  0.64222463  0.87898028    -0.33700
C2190       C  0.52214818  0.61995645  0.85752717     0.35360
H2191       H  0.95022875  0.62385265  0.83513924     0.15730
O2192       O  0.94358642  0.66572197  0.87346804    -0.61200
H2193       H  0.54155377  0.64719570  0.89107113     0.15740
O2194       O  0.54810221  0.60510152  0.85268517    -0.61290
H2195       H  0.54722729  0.58764181  0.86586558     0.42740
H2196       H  0.94378797  0.68218353  0.85903015     0.42690
C2197       C  0.99729268  0.84474949  0.88550595    -0.06370
C2198       C  0.97044629  0.85394007  0.87296611    -0.33800
C2199       C  0.96975437  0.87574906  0.85109858     0.35450
C2200       C  0.99630161  0.88882825  0.84118292    -0.06730
C2201       C  0.52306526  0.88034692  0.85442786    -0.33700
C2202       C  0.52374758  0.85852006  0.87633375     0.35360
H2203       H  0.94981940  0.84377460  0.87966231     0.15730
O2204       O  0.94304130  0.88320133  0.83886926    -0.61200
H2205       H  0.54369793  0.89035873  0.84751789     0.15740
O2206       O  0.55040390  0.85104253  0.88868451    -0.61290
H2207       H  0.55943050  0.83680151  0.87471205     0.42740
H2208       H  0.93482313  0.89862931  0.85204982     0.42690
C2209       C  0.49636980  0.88850816  0.65446415    -0.06370
C2210       C  0.52267188  0.88218981  0.63924769    -0.33800
C2211       C  0.52335586  0.86076075  0.61696549     0.35450
C2212       C  0.99748865  0.84487902  0.60976535    -0.06730
C2213       C  0.97104948  0.85174811  0.62446257    -0.33700
C2214       C  0.97027834  0.87332877  0.64651969     0.35360
H2215       H  0.54289547  0.89379639  0.64470563     0.15730
O2216       O  0.54949979  0.85540275  0.60263387    -0.61200
H2217       H  0.95088895  0.83987018  0.61937105     0.15740
O2218       O  0.94414764  0.87832131  0.66103961    -0.61290
H2219       H  0.93338993  0.89285451  0.64865876     0.42740
H2220       H  0.54975510  0.86945913  0.58585526     0.42690
C2221       C  0.49831076  0.65805832  0.61018195    -0.06370
C2222       C  0.97137878  0.64860510  0.62232803    -0.33800
C2223       C  0.97051761  0.62674471  0.64413029     0.35450
C2224       C  0.49698326  0.61392070  0.65445292    -0.06730
C2225       C  0.52389385  0.62277826  0.64172745    -0.33700
C2226       C  0.52471426  0.64448012  0.61970185     0.35360
H2227       H  0.95076373  0.65854848  0.61531476     0.15730
O2228       O  0.94366759  0.61895980  0.65586409    -0.61200
H2229       H  0.54451574  0.61308029  0.64905713     0.15740
O2230       O  0.55154960  0.65258674  0.60816377    -0.61290
H2231       H  0.55479520  0.63909442  0.59123541     0.42740
H2232       H  0.93594810  0.60328250  0.64265356     0.42690
loop_ 
_geom_bond_atom_site_label_1 
_geom_bond_atom_site_label_2 
_geom_bond_distance 
_geom_bond_site_symmetry_2 
_ccdc_geom_bond_type 
N1            N2   1.321       .  A
N1          N565   1.316       .  A
N1          Mn30   2.206       .  S
N2          C567   1.352       .  A
N3            N4   1.320       .  A
N3          N563   1.315   1_545  A
N3          Mn19   2.205       .  S
N4          C568   1.355       .  A
N5            N6   1.320       .  A
N5          N561   1.315       .  A
N5          Mn30   2.199       .  S
N6           C10   1.353       .  A
N7            N8   1.321       .  A
N7          N559   1.316   1_545  A
N7          Mn19   2.202       .  S
N8            C9   1.351       .  A
C9          N560   1.352   1_545  A
C9          C208   1.468       .  S
C10         N562   1.355       .  A
C10         C199   1.484       .  S
N11          N12   1.320       .  A
N11        N1133   1.315       .  A
N11         Mn41   2.202       .  S
N12          C20   1.354       .  A
N13          N14   1.321       .  A
N13        N1131   1.315   1_455  A
N13         Mn19   2.204       .  S
N14          C21   1.355   1_455  A
N15          N16   1.319       .  A
N15        N1129   1.315       .  A
N15         Mn41   2.195       .  S
N16        C1137   1.353       .  A
N17          N18   1.321       .  A
N17        N1127   1.315   1_455  A
N17         Mn19   2.204       .  S
N18        C1136   1.354   1_455  A
Mn19        Cl43   2.544   1_455  S
C20        N1134   1.354       .  A
C20         C232   1.483       .  S
C21        N1132   1.353       .  A
C21         C271   1.483       .  S
N22          N23   1.321       .  A
N22        N1144   1.315   1_455  A
N22         Mn30   2.206       .  S
N23        C1147   1.355   1_455  A
N24          N25   1.319       .  A
N24        N1142   1.315       .  A
N24         Mn42   2.197       .  S
N25        C1148   1.352       .  A
N26          N27   1.321       .  A
N26        N1140   1.315   1_455  A
N26         Mn30   2.206       .  S
N27          C32   1.355   1_455  A
N28          N29   1.319       .  A
N28        N1138   1.315       .  A
N28         Mn42   2.193       .  S
N29          C31   1.352       .  A
Mn30       Cl601   2.548   1_455  S
C31        N1139   1.355       .  A
C31         C247   1.483       .  S
C32        N1141   1.352       .  A
C32         C256   1.482       .  S
N33          N34   1.321       .  A
N33         N597   1.315   1_545  A
N33         Mn41   2.203       .  S
N34          C44   1.354       .  A
N35          N36   1.320       .  A
N35         N595   1.315       .  A
N35         Mn42   2.197       .  S
N36          C45   1.353       .  A
N37          N38   1.319       .  A
N37         N593   1.315   1_545  A
N37         Mn41   2.200       .  S
N38         C603   1.354       .  A
N39          N40   1.319       .  A
N39         N591   1.315       .  A
N39         Mn42   2.198       .  S
N40         C602   1.353       .  A
Mn41      Cl1159   2.547       .  S
Mn42      Cl1717   2.544       .  S
Cl43       Mn588   2.548   1_645  S
Cl43      Mn1157   2.547       .  S
Cl43      Mn1716   2.545   1_545  S
C44         N598   1.353   1_545  A
C44         C220   1.478       .  S
C45         N596   1.354       .  A
C45         C184   1.479       .  S
N46          N47   1.319       .  A
N46        N1168   1.315       .  A
N46         Mn75   2.199       .  S
N47        C1170   1.354       .  A
N48          N49   1.321       .  A
N48        N1166   1.315   1_455  A
N48         Mn64   2.202       .  S
N49        C1171   1.354   1_455  A
N50          N51   1.319       .  A
N50        N1164   1.315       .  A
N50         Mn75   2.200       .  S
N51          C55   1.354       .  A
N52          N53   1.320       .  A
N52        N1162   1.315   1_455  A
N52         Mn64   2.200       .  S
N53          C54   1.354   1_455  A
C54        N1163   1.354       .  A
C54         C268   1.483       .  S
C55        N1165   1.354       .  A
C55         C259   1.482       .  S
N56          N57   1.319       .  A
N56         N341   1.315       .  A
N56         Mn86   2.198       .  S
N57          C65   1.353       .  A
N58          N59   1.320       .  A
N58         N339   1.315   1_554  A
N58         Mn64   2.204       .  S
N59         C345   1.354   1_554  A
N60          N61   1.320       .  A
N60         N337   1.315       .  A
N60         Mn86   2.198       .  S
N61          C66   1.354       .  A
N62          N63   1.320       .  A
N62         N335   1.315   1_554  A
N62         Mn64   2.201       .  S
N63         C344   1.353   1_554  A
Mn64       Cl367   2.545   1_454  S
C65         N342   1.353       .  A
C65         C163   1.476       .  S
C66         N338   1.354       .  A
C66         C172   1.481       .  S
N67          N68   1.320       .  A
N67         N352   1.315   1_554  A
N67         Mn75   2.202       .  S
N68         C355   1.353   1_554  A
N69          N70   1.319       .  A
N69         N350   1.315       .  A
N69         Mn87   2.203       .  S
N70          C77   1.354       .  A
N71          N72   1.321       .  A
N71         N348   1.315   1_554  A
N71         Mn75   2.200       .  S
N72         C356   1.353   1_554  A
N73          N74   1.321       .  A
N73         N346   1.315       .  A
N73         Mn87   2.203       .  S
N74          C76   1.354       .  A
Mn75      Cl1483   2.546   1_554  S
C76         N347   1.353       .  A
C76         C139   1.481       .  S
C77         N351   1.354       .  A
C77         C148   1.481       .  S
N78          N79   1.321       .  A
N78        N1200   1.315   1_455  A
N78         Mn86   2.204       .  S
N79          C89   1.355   1_455  A
N80          N81   1.320       .  A
N80        N1198   1.315       .  A
N80         Mn87   2.202       .  S
N81          C90   1.355       .  A
N82          N83   1.319       .  A
N82        N1196   1.315   1_455  A
N82         Mn86   2.199       .  S
N83        C1206   1.353   1_455  A
N84          N85   1.320       .  A
N84        N1194   1.315       .  A
N84         Mn87   2.201       .  S
N85        C1205   1.353       .  A
Mn86        Cl88   2.547   1_455  S
Mn87      Cl1204   2.545       .  S
Cl88       Mn343   2.545   1_655  S
Cl88      Mn1470   2.546       .  S
Cl88      Mn1203   2.545       .  S
C89        N1201   1.353       .  A
C89         C235   1.483       .  S
C90        N1199   1.353       .  A
C90         C244   1.482       .  S
N91          N92   1.321       .  A
N91         N376   1.316       .  A
N91        Mn120   2.203       .  S
N92          C99   1.354       .  A
N93          N94   1.321       .  A
N93         N374   1.315   1_554  A
N93        Mn109   2.203       .  S
N94         C379   1.354   1_554  A
N95          N96   1.319       .  A
N95         N372   1.315       .  A
N95        Mn120   2.196       .  S
N96         C100   1.352       .  A
N97          N98   1.320       .  A
N97         N370   1.316   1_554  A
N97        Mn109   2.204       .  S
N98         C378   1.353   1_554  A
C99         N377   1.353       .  A
C99         C136   1.482       .  S
C100        N373   1.354       .  A
C100        C160   1.476       .  S
N101        N102   1.321       .  A
N101        N665   1.316   1_545  A
N101       Mn131   2.207       .  S
N102        C110   1.352       .  A
N103        N104   1.319       .  A
N103        N663   1.316       .  A
N103       Mn109   2.199       .  S
N104        C111   1.353       .  A
N105        N106   1.321       .  A
N105        N661   1.316   1_545  A
N105       Mn131   2.205       .  S
N106        C669   1.354       .  A
N107        N108   1.320       .  A
N107        N659   1.316       .  A
N107       Mn109   2.200       .  S
N108        C668   1.351       .  A
Mn109      Cl970   2.546   1_554  S
C110        N666   1.351   1_545  A
C110        C211   1.468       .  S
C111        N664   1.354       .  A
C111        C223   1.479       .  S
N112        N113   1.321       .  A
N112        N676   1.315       .  A
N112       Mn120   2.208       .  S
N113        C679   1.355       .  A
N114        N115   1.318       .  A
N114        N674   1.315   1_545  A
N114       Mn132   2.194       .  S
N115        C680   1.352       .  A
N116        N117   1.321       .  A
N116        N672   1.315       .  A
N116       Mn120   2.203       .  S
N117        C122   1.355       .  A
N118        N119   1.319       .  A
N118        N670   1.315   1_545  A
N118       Mn132   2.195       .  S
N119        C121   1.353       .  A
Mn120      Cl691   2.548       .  S
C121        N671   1.355   1_545  A
C121        C196   1.484       .  S
C122        N673   1.352       .  A
C122        C187   1.479       .  S
N123        N124   1.322       .  A
N123        N408   1.315   1_554  A
N123       Mn131   2.210       .  S
N124        C413   1.356   1_554  A
N125        N126   1.319       .  A
N125        N406   1.315       .  A
N125       Mn132   2.195       .  S
N126        C135   1.352       .  A
N127        N128   1.321       .  A
N127        N404   1.315   1_554  A
N127       Mn131   2.203       .  S
N128        C414   1.355   1_554  A
N129        N130   1.318       .  A
N129        N402   1.315       .  A
N129       Mn132   2.193       .  S
N130        C134   1.352       .  A
Mn131      Cl412   2.547   1_554  S
Mn132      Cl133   2.543       .  S
Cl133      Mn946   2.546   1_545  S
Cl133      Mn678   2.548   1_545  S
Cl133      Mn410   2.547       .  S
C134        N403   1.356       .  A
C134        C151   1.481       .  S
C135        N407   1.355       .  A
C135        C175   1.481       .  S
C136        C137   1.405       .  A
C136        C420   1.411       .  A
C137        C138   1.401       .  A
C137        H142   1.083       .  S
C138        C139   1.410       .  A
C138        O143   1.372       .  S
C139        C419   1.404       .  A
C140        C141   1.399       .  A
C140        C418   1.404   1_554  A
C140        H144   1.083       .  S
C141        C415   1.411   1_554  A
C141        O145   1.372       .  S
O143        H147   0.991       .  S
O145        H146   0.991       .  S
C148        C149   1.403       .  A
C148        C432   1.411       .  A
C149        C150   1.397       .  A
C149        H154   1.083       .  S
C150        C151   1.411       .  A
C150        O155   1.372       .  S
C151        C431   1.405       .  A
C152        C153   1.402       .  A
C152        C430   1.405   1_554  A
C152        H156   1.083       .  S
C153        C427   1.411   1_554  A
C153        O157   1.371       .  S
O155        H159   0.991       .  S
O157        H158   0.991       .  S
C160        C161   1.404       .  A
C160        C165   1.410       .  A
C161        C162   1.400       .  A
C161        H166   1.084       .  S
C162        C163   1.408       .  A
C162        O167   1.371       .  S
C163        C164   1.402       .  A
C164        C165   1.398       .  A
C164        H168   1.084       .  S
C165        O169   1.372       .  S
O167        H450   0.991       .  S
O169        H170   0.993       .  S
H171        O446   0.991       .  S
C172        C173   1.404       .  A
C172        C456   1.410       .  A
C173        C174   1.399       .  A
C173        H178   1.083       .  S
C174        C175   1.411       .  A
C174        O179   1.372       .  S
C175        C455   1.404       .  A
C176        C177   1.401       .  A
C176        C454   1.404   1_554  A
C176        H180   1.083       .  S
C177        C451   1.410   1_554  A
C177        O181   1.371       .  S
O179        H183   0.992       .  S
O181        H182   0.992       .  S
C184        C189   1.410       .  A
C184        C743   1.403       .  A
C185        C186   1.397       .  A
C185        C742   1.403       .  A
C185        H190   1.083       .  S
C186        C745   1.411       .  A
C186        O191   1.372       .  S
C187        C188   1.404       .  A
C187        C744   1.411       .  A
C188        C189   1.401       .  A
C188        H192   1.084       .  S
C189        O193   1.371       .  S
O191        H195   0.991       .  S
O193        H194   0.991       .  S
C196        C201   1.412       .  A
C196        C755   1.405   1_545  A
C197        C198   1.401       .  A
C197        C754   1.405       .  A
C197        H202   1.083       .  S
C198        C199   1.412       .  A
C198        O203   1.372       .  S
C199        C758   1.404       .  A
C200        C201   1.399       .  A
C200        C757   1.404       .  A
C200        H204   1.083       .  S
C201        O205   1.371       .  S
O203        H207   0.992       .  S
O205        H206   0.992       .  S
C208        C209   1.402       .  A
C208        C213   1.406   1_545  A
C209        C210   1.403       .  A
C209        H214   1.084       .  S
C210        C211   1.406       .  A
C210        O215   1.371       .  S
C211        C212   1.401   1_545  A
C212        C213   1.399       .  A
C212        H216   1.084       .  S
C213        O217   1.372       .  S
O215        H219   0.993       .  S
O217        H218   0.991   1_565  S
C220        C225   1.409       .  A
C220        C779   1.403   1_545  A
C221        C222   1.398       .  A
C221        C778   1.403       .  A
C221        H226   1.084       .  S
C222        C223   1.410       .  A
C222        O227   1.372       .  S
C223        C782   1.405       .  A
C224        C225   1.402       .  A
C224        C781   1.405   1_545  A
C224        H228   1.084       .  S
C225        O229   1.372       .  S
O227        H231   0.993       .  S
O229        H230   0.991       .  S
C232        C233   1.404       .  A
C232       C1353   1.411       .  A
C233        C234   1.399       .  A
C233        H238   1.083       .  S
C234       C1351   1.411       .  A
C234        O239   1.372       .  S
C235        C236   1.405   1_655  A
C235       C1350   1.411       .  A
C236        C237   1.401       .  A
C236        H240   1.083       .  S
C237       C1348   1.411   1_455  A
C237        O241   1.371       .  S
O239        H243   0.991       .  S
O241        H242   0.991       .  S
C244        C245   1.404       .  A
C244       C1365   1.411       .  A
C245        C246   1.399       .  A
C245        H250   1.083       .  S
C246        C247   1.412       .  A
C246        O251   1.371       .  S
C247       C1364   1.404       .  A
C248        C249   1.400       .  A
C248       C1363   1.404   1_455  A
C248        H252   1.083       .  S
C249       C1360   1.411   1_455  A
C249        O253   1.372       .  S
O251        H255   0.992       .  S
O253        H254   0.992       .  S
C256        C257   1.405   1_655  A
C256       C1377   1.411       .  A
C257        C258   1.401       .  A
C257        H262   1.083       .  S
C258       C1375   1.410   1_455  A
C258        O263   1.371       .  S
C259        C260   1.404       .  A
C259       C1374   1.410       .  A
C260        C261   1.398       .  A
C260        H264   1.083       .  S
C261       C1372   1.411       .  A
C261        O265   1.371       .  S
O263        H267   0.991       .  S
O265        H266   0.992       .  S
C268        C273   1.411   1_655  A
C268       C1385   1.404       .  A
C269        C270   1.398       .  A
C269       C1384   1.404       .  A
C269        H274   1.083       .  S
C270       C1387   1.411       .  A
C270        O275   1.371       .  S
C271        C272   1.405   1_655  A
C271       C1386   1.411       .  A
C272        C273   1.401       .  A
C272        H276   1.083       .  S
C273        O277   1.371       .  S
O275        H279   0.992       .  S
O277        H278   0.992       .  S
N280        N281   1.321       .  A
N280        N844   1.316       .  A
N280       Mn309   2.206       .  S
N281        C846   1.352       .  A
N282        N842   1.315   1_545  A
N282        N283   1.320       .  A
N282       Mn298   2.205       .  S
N283        C847   1.355       .  A
N284        N840   1.315       .  A
N284        N285   1.320       .  A
N284       Mn309   2.199       .  S
N285        C289   1.353       .  A
N286        N838   1.316   1_545  A
N286        N287   1.321       .  A
N286       Mn298   2.202       .  S
N287        C288   1.351       .  A
C288        N839   1.352   1_545  A
C288        C487   1.468       .  S
C289        N841   1.355       .  A
C289        C478   1.484       .  S
N290       N1412   1.315       .  A
N290        N291   1.320       .  A
N290       Mn320   2.202       .  S
N291        C299   1.354       .  A
N292        N293   1.321       .  A
N292       N1410   1.315   1_455  A
N292       Mn298   2.204       .  S
N293        C300   1.355   1_455  A
N294       N1408   1.315       .  A
N294        N295   1.319       .  A
N294       Mn320   2.195       .  S
N295       C1416   1.353       .  A
N296       N1406   1.315   1_455  A
N296        N297   1.321       .  A
N296       Mn298   2.204       .  S
N297       C1415   1.354   1_455  A
Mn298      Cl322   2.544   1_455  S
C299       N1413   1.354       .  A
C299        C511   1.483       .  S
C300       N1411   1.353       .  A
C300        C550   1.483       .  S
N301        N302   1.321       .  A
N301       N1423   1.315   1_455  A
N301       Mn309   2.206       .  S
N302       C1426   1.355   1_455  A
N303       N1421   1.315       .  A
N303        N304   1.319       .  A
N303       Mn321   2.197       .  S
N304       C1427   1.352       .  A
N305       N1419   1.315   1_455  A
N305        N306   1.321       .  A
N305       Mn309   2.206       .  S
N306        C311   1.355   1_455  A
N307       N1417   1.315       .  A
N307        N308   1.319       .  A
N307       Mn321   2.193       .  S
N308        C310   1.352       .  A
Mn309      Cl880   2.548   1_455  S
C310       N1418   1.355       .  A
C310        C526   1.483       .  S
C311       N1420   1.352       .  A
C311        C535   1.482       .  S
N312        N313   1.321       .  A
N312        N876   1.315   1_545  A
N312       Mn320   2.203       .  S
N313        C323   1.354       .  A
N314        N315   1.320       .  A
N314        N874   1.315       .  A
N314       Mn321   2.197       .  S
N315        C324   1.353       .  A
N316        N872   1.315   1_545  A
N316        N317   1.319       .  A
N316       Mn320   2.200       .  S
N317        C882   1.354       .  A
N318        N870   1.315       .  A
N318        N319   1.319       .  A
N318       Mn321   2.198       .  S
N319        C881   1.353       .  A
Mn320     Cl1438   2.547       .  S
Mn321     Cl1996   2.544       .  S
Cl322      Mn867   2.548   1_645  S
Cl322     Mn1436   2.547       .  S
Cl322     Mn1995   2.545   1_545  S
C323        N877   1.353   1_545  A
C323        C499   1.478       .  S
C324        N875   1.354       .  A
C324        C463   1.479       .  S
N325        N326   1.319       .  A
N325       N1447   1.315       .  A
N325       Mn354   2.199       .  S
N326       C1449   1.354       .  A
N327       N1445   1.315   1_455  A
N327        N328   1.321       .  A
N327       Mn343   2.202       .  S
N328       C1450   1.354   1_455  A
N329       N1443   1.315       .  A
N329        N330   1.319       .  A
N329       Mn354   2.200       .  S
N330        C334   1.354       .  A
N331       N1441   1.315   1_455  A
N331        N332   1.320       .  A
N331       Mn343   2.200       .  S
N332        C333   1.354   1_455  A
C333       N1442   1.354       .  A
C333        C547   1.483       .  S
C334       N1444   1.354       .  A
C334        C538   1.482       .  S
N335        N336   1.319       .  A
N335       Mn365   2.198       .  S
N336        C344   1.353       .  A
N337        N338   1.320       .  A
N337       Mn343   2.203       .  S
N339        N340   1.320       .  A
N339       Mn365   2.198       .  S
N340        C345   1.354       .  A
N341        N342   1.320       .  A
N341       Mn343   2.201       .  S
C344        C442   1.476       .  S
C345        C451   1.481       .  S
N346        N347   1.320       .  A
N346       Mn354   2.201       .  S
N348        N349   1.319       .  A
N348       Mn366   2.203       .  S
N349        C356   1.354       .  A
N350        N351   1.321       .  A
N350       Mn354   2.200       .  S
N352        N353   1.321       .  A
N352       Mn366   2.203       .  S
N353        C355   1.354       .  A
Mn354     Cl1204   2.546       .  S
C355        C418   1.481       .  S
C356        C427   1.481       .  S
N357        N358   1.321       .  A
N357       N1479   1.315   1_455  A
N357       Mn365   2.204       .  S
N358        C368   1.355   1_455  A
N359        N360   1.320       .  A
N359       N1477   1.315       .  A
N359       Mn366   2.202       .  S
N360        C369   1.355       .  A
N361       N1475   1.315   1_455  A
N361        N362   1.319       .  A
N361       Mn365   2.199       .  S
N362       C1485   1.353   1_455  A
N363       N1473   1.315       .  A
N363        N364   1.320       .  A
N363       Mn366   2.202       .  S
N364       C1484   1.353       .  A
Mn365      Cl367   2.547   1_455  S
Mn366     Cl1483   2.545       .  S
Cl367     Mn1191   2.547   1_556  S
Cl367     Mn1482   2.545       .  S
C368       N1480   1.353       .  A
C368        C514   1.484       .  S
C369       N1478   1.353       .  A
C369        C523   1.482       .  S
N370        N371   1.321       .  A
N370       Mn399   2.203       .  S
N371        C378   1.354       .  A
N372        N373   1.321       .  A
N372       Mn388   2.203       .  S
N374        N375   1.319       .  A
N374       Mn399   2.196       .  S
N375        C379   1.352       .  A
N376        N377   1.320       .  A
N376       Mn388   2.204       .  S
C378        C415   1.482       .  S
C379        C439   1.476       .  S
N380        N944   1.316   1_545  A
N380        N381   1.321       .  A
N380       Mn410   2.207       .  S
N381        C389   1.352       .  A
N382        N383   1.319       .  A
N382        N942   1.316       .  A
N382       Mn388   2.199       .  S
N383        C390   1.353       .  A
N384        N940   1.316   1_545  A
N384        N385   1.321       .  A
N384       Mn410   2.205       .  S
N385        C948   1.354       .  A
N386        N938   1.316       .  A
N386        N387   1.320       .  A
N386       Mn388   2.200       .  S
N387        C947   1.351       .  A
Mn388      Cl691   2.546       .  S
C389        N945   1.351   1_545  A
C389        C490   1.468       .  S
C390        N943   1.354       .  A
C390        C502   1.479       .  S
N391        N392   1.321       .  A
N391        N955   1.315       .  A
N391       Mn399   2.208       .  S
N392        C958   1.355       .  A
N393        N953   1.315   1_545  A
N393        N394   1.318       .  A
N393       Mn411   2.194       .  S
N394        C959   1.352       .  A
N395        N951   1.315       .  A
N395        N396   1.321       .  A
N395       Mn399   2.203       .  S
N396        C401   1.355       .  A
N397        N949   1.315   1_545  A
N397        N398   1.319       .  A
N397       Mn411   2.195       .  S
N398        C400   1.353       .  A
Mn399      Cl970   2.548       .  S
C400        N950   1.355   1_545  A
C400        C475   1.484       .  S
C401        N952   1.352       .  A
C401        C466   1.479       .  S
N402        N403   1.322       .  A
N402       Mn410   2.210       .  S
N404        N405   1.319       .  A
N404       Mn411   2.195       .  S
N405        C414   1.353       .  A
N406        N407   1.321       .  A
N406       Mn410   2.203       .  S
N408        N409   1.318       .  A
N408       Mn411   2.193       .  S
N409        C413   1.352       .  A
Mn411      Cl412   2.543       .  S
Cl412      Mn667   2.546   1_546  S
Cl412      Mn957   2.548   1_545  S
C413        C430   1.481       .  S
C414        C454   1.482       .  S
C415        C416   1.405       .  A
C416        C417   1.401       .  A
C416        H421   1.083       .  S
C417        C418   1.410       .  A
C417        O422   1.372       .  S
C419        C420   1.399       .  A
C419        H423   1.083       .  S
C420        O424   1.372       .  S
O422        H426   0.991       .  S
O424        H425   0.991       .  S
C427        C428   1.403       .  A
C428        C429   1.397       .  A
C428        H433   1.083       .  S
C429        C430   1.411       .  A
C429        O434   1.372       .  S
C431        C432   1.402       .  A
C431        H435   1.083       .  S
C432        O436   1.371       .  S
O434        H438   0.991       .  S
O436        H437   0.991       .  S
C439        C440   1.404   1_556  A
C439        C444   1.410       .  A
C440        C441   1.400       .  A
C440        H445   1.084       .  S
C441        C442   1.409   1_554  A
C441        O446   1.371       .  S
C442        C443   1.402       .  A
C443        C444   1.398       .  A
C443        H447   1.084       .  S
C444        O448   1.372       .  S
O448        H449   0.993       .  S
C451        C452   1.404       .  A
C452        C453   1.399       .  A
C452        H457   1.083       .  S
C453        C454   1.411       .  A
C453        O458   1.372       .  S
C455        C456   1.401       .  A
C455        H459   1.083       .  S
C456        O460   1.371       .  S
O458        H462   0.992       .  S
O460        H461   0.992       .  S
C463       C1022   1.403       .  A
C463        C468   1.410       .  A
C464       C1021   1.403       .  A
C464        C465   1.397       .  A
C464        H469   1.083       .  S
C465       C1024   1.411       .  A
C465        O470   1.372       .  S
C466       C1023   1.411       .  A
C466        C467   1.404       .  A
C467        C468   1.401       .  A
C467        H471   1.084       .  S
C468        O472   1.371       .  S
O470        H474   0.991       .  S
O472        H473   0.991       .  S
C475       C1034   1.405   1_545  A
C475        C480   1.412       .  A
C476       C1033   1.405       .  A
C476        C477   1.401       .  A
C476        H481   1.083       .  S
C477        C478   1.411       .  A
C477        O482   1.372       .  S
C478       C1037   1.404       .  A
C479       C1036   1.404       .  A
C479        C480   1.399       .  A
C479        H483   1.083       .  S
C480        O484   1.371       .  S
O482        H486   0.992       .  S
O484        H485   0.992       .  S
C487        C488   1.402       .  A
C487        C492   1.406   1_545  A
C488        C489   1.403       .  A
C488        H493   1.084       .  S
C489        C490   1.406       .  A
C489        O494   1.371       .  S
C490        C491   1.401   1_545  A
C491        C492   1.399       .  A
C491        H495   1.084       .  S
C492        O496   1.372       .  S
O494        H498   0.993       .  S
O496        H497   0.991   1_565  S
C499       C1058   1.403   1_545  A
C499        C504   1.409       .  A
C500       C1057   1.403       .  A
C500        C501   1.398       .  A
C500        H505   1.084       .  S
C501        C502   1.410       .  A
C501        O506   1.372       .  S
C502       C1061   1.405       .  A
C503       C1060   1.405   1_545  A
C503        C504   1.402       .  A
C503        H507   1.084       .  S
C504        O508   1.372       .  S
O506        H510   0.993       .  S
O508        H509   0.991       .  S
C511        C512   1.404       .  A
C511       C1632   1.411       .  A
C512        C513   1.399       .  A
C512        H517   1.083       .  S
C513       C1630   1.411       .  A
C513        O518   1.372       .  S
C514       C1629   1.411       .  A
C514        C515   1.405   1_655  A
C515        C516   1.401       .  A
C515        H519   1.083       .  S
C516       C1627   1.411   1_455  A
C516        O520   1.371       .  S
O518        H522   0.991       .  S
O520        H521   0.991       .  S
C523        C524   1.404       .  A
C523       C1644   1.411       .  A
C524        C525   1.399       .  A
C524        H529   1.083       .  S
C525        C526   1.412       .  A
C525        O530   1.371       .  S
C526       C1643   1.404       .  A
C527       C1642   1.404   1_455  A
C527        C528   1.400       .  A
C527        H531   1.083       .  S
C528       C1639   1.411   1_455  A
C528        O532   1.372       .  S
O530        H534   0.992       .  S
O532        H533   0.992       .  S
C535        C536   1.405   1_655  A
C535       C1656   1.411       .  A
C536        C537   1.401       .  A
C536        H541   1.083       .  S
C537       C1654   1.410   1_455  A
C537        O542   1.371       .  S
C538       C1653   1.410       .  A
C538        C539   1.404       .  A
C539        C540   1.398       .  A
C539        H543   1.083       .  S
C540       C1651   1.411       .  A
C540        O544   1.371       .  S
O542        H546   0.991       .  S
O544        H545   0.992       .  S
C547       C1664   1.404       .  A
C547        C552   1.411   1_655  A
C548       C1663   1.404       .  A
C548        C549   1.398       .  A
C548        H553   1.083       .  S
C549       C1666   1.411       .  A
C549        O554   1.371       .  S
C550       C1665   1.411       .  A
C550        C551   1.405   1_655  A
C551        C552   1.400       .  A
C551        H555   1.083       .  S
C552        O556   1.371       .  S
O554        H558   0.992       .  S
O556        H557   0.992       .  S
N559        N560   1.321       .  A
N559       Mn588   2.206       .  S
N561        N562   1.320       .  A
N561       Mn577   2.205       .  S
N563        N564   1.320       .  A
N563       Mn588   2.199       .  S
N564        C568   1.353   1_565  A
N565        N566   1.321       .  A
N565       Mn577   2.202       .  S
N566        C567   1.351       .  A
C567        C766   1.468       .  S
C568        C757   1.484       .  S
N569       N1691   1.315       .  A
N569        N570   1.320       .  A
N569       Mn599   2.202       .  S
N570        C578   1.354       .  A
N571        N572   1.321       .  A
N571       N1689   1.315   1_455  A
N571       Mn577   2.204       .  S
N572        C579   1.355   1_455  A
N573       N1687   1.315       .  A
N573        N574   1.319       .  A
N573       Mn599   2.195       .  S
N574       C1695   1.353       .  A
N575       N1685   1.315   1_455  A
N575        N576   1.321       .  A
N575       Mn577   2.204       .  S
N576       C1694   1.354   1_455  A
Mn577      Cl601   2.544   1_455  S
C578       N1692   1.354       .  A
C578        C790   1.483       .  S
C579       N1690   1.353       .  A
C579        C829   1.483       .  S
N580        N581   1.321       .  A
N580       N1702   1.315   1_455  A
N580       Mn588   2.206       .  S
N581       C1705   1.355   1_455  A
N582       N1700   1.315       .  A
N582        N583   1.319       .  A
N582       Mn600   2.197       .  S
N583       C1706   1.352       .  A
N584       N1698   1.315   1_455  A
N584        N585   1.321       .  A
N584       Mn588   2.206       .  S
N585        C590   1.355   1_455  A
N586       N1696   1.315       .  A
N586        N587   1.319       .  A
N586       Mn600   2.193       .  S
N587        C589   1.352       .  A
C589       N1697   1.355       .  A
C589        C805   1.483       .  S
C590       N1699   1.352       .  A
C590        C814   1.482       .  S
N591        N592   1.321       .  A
N591       Mn599   2.203       .  S
N592        C602   1.354       .  A
N593        N594   1.320       .  A
N593       Mn600   2.197       .  S
N594        C603   1.353   1_565  A
N595        N596   1.319       .  A
N595       Mn599   2.200       .  S
N597        N598   1.319       .  A
N597       Mn600   2.198       .  S
Mn599     Cl1717   2.547       .  S
Mn600     Cl1159   2.544   1_565  S
Cl601     Mn1715   2.547       .  S
Cl601     Mn1158   2.545       .  S
C602        C778   1.478       .  S
C603        C742   1.479       .  S
N604        N605   1.319       .  A
N604       N1726   1.315       .  A
N604       Mn633   2.199       .  S
N605       C1728   1.354       .  A
N606       N1724   1.315   1_455  A
N606        N607   1.321       .  A
N606       Mn622   2.202       .  S
N607       C1729   1.354   1_455  A
N608       N1722   1.315       .  A
N608        N609   1.319       .  A
N608       Mn633   2.200       .  S
N609        C613   1.354       .  A
N610       N1720   1.315   1_455  A
N610        N611   1.320       .  A
N610       Mn622   2.200       .  S
N611        C612   1.354   1_455  A
C612       N1721   1.354       .  A
C612        C826   1.483       .  S
C613       N1723   1.354       .  A
C613        C817   1.482       .  S
N614        N899   1.315       .  A
N614        N615   1.319       .  A
N614       Mn644   2.198       .  S
N615        C623   1.353       .  A
N616        N617   1.320       .  A
N616        N897   1.315   1_554  A
N616       Mn622   2.204       .  S
N617        C903   1.354   1_554  A
N618        N895   1.315       .  A
N618        N619   1.320       .  A
N618       Mn644   2.198       .  S
N619        C624   1.354       .  A
N620        N893   1.315   1_554  A
N620        N621   1.320       .  A
N620       Mn622   2.201       .  S
N621        C902   1.353   1_554  A
Mn622      Cl925   2.545   1_454  S
C623        N900   1.353       .  A
C623        C721   1.476       .  S
C624        N896   1.354       .  A
C624        C730   1.481       .  S
N625        N626   1.320       .  A
N625        N910   1.315   1_554  A
N625       Mn633   2.202       .  S
N626        C913   1.353   1_554  A
N627        N908   1.315       .  A
N627        N628   1.319       .  A
N627       Mn645   2.203       .  S
N628        C635   1.354       .  A
N629        N906   1.315   1_554  A
N629        N630   1.321       .  A
N629       Mn633   2.200       .  S
N630        C914   1.353   1_554  A
N631        N904   1.315       .  A
N631        N632   1.321       .  A
N631       Mn645   2.203       .  S
N632        C634   1.354       .  A
Mn633     Cl2041   2.546   1_554  S
C634        N905   1.353       .  A
C634        C697   1.481       .  S
C635        N909   1.354       .  A
C635        C706   1.481       .  S
N636        N637   1.321       .  A
N636       N1758   1.315   1_455  A
N636       Mn644   2.204       .  S
N637        C647   1.355   1_455  A
N638        N639   1.320       .  A
N638       N1756   1.315       .  A
N638       Mn645   2.202       .  S
N639        C648   1.355       .  A
N640       N1754   1.315   1_455  A
N640        N641   1.319       .  A
N640       Mn644   2.199       .  S
N641       C1764   1.353   1_455  A
N642       N1752   1.315       .  A
N642        N643   1.320       .  A
N642       Mn645   2.201       .  S
N643       C1763   1.353       .  A
Mn644      Cl646   2.547   1_455  S
Mn645     Cl1762   2.545       .  S
Cl646      Mn901   2.545   1_655  S
Cl646     Mn2028   2.546       .  S
Cl646     Mn1761   2.545       .  S
C647       N1759   1.353       .  A
C647        C793   1.483       .  S
C648       N1757   1.353       .  A
C648        C802   1.482       .  S
N649        N650   1.321       .  A
N649        N934   1.316       .  A
N649       Mn678   2.203       .  S
N650        C657   1.354       .  A
N651        N932   1.315   1_554  A
N651        N652   1.321       .  A
N651       Mn667   2.203       .  S
N652        C937   1.354   1_554  A
N653        N930   1.315       .  A
N653        N654   1.319       .  A
N653       Mn678   2.196       .  S
N654        C658   1.352       .  A
N655        N928   1.316   1_554  A
N655        N656   1.320       .  A
N655       Mn667   2.204       .  S
N656        C936   1.353   1_554  A
C657        N935   1.353       .  A
C657        C694   1.482       .  S
C658        N931   1.354       .  A
C658        C718   1.476       .  S
N659        N660   1.321       .  A
N659       Mn689   2.207       .  S
N660        C668   1.352       .  A
N661        N662   1.319       .  A
N661       Mn667   2.199       .  S
N662        C669   1.353   1_565  A
N663        N664   1.321       .  A
N663       Mn689   2.205       .  S
N665        N666   1.320       .  A
N665       Mn667   2.200       .  S
C668        C769   1.468       .  S
C669        C781   1.479   1_545  S
N670        N671   1.321       .  A
N670       Mn678   2.208       .  S
N672        N673   1.318       .  A
N672       Mn690   2.194       .  S
N674        N675   1.321       .  A
N674       Mn678   2.203       .  S
N675        C680   1.355   1_565  A
N676        N677   1.319       .  A
N676       Mn690   2.195       .  S
N677        C679   1.353       .  A
C679        C754   1.484       .  S
C680        C745   1.479       .  S
N681        N682   1.322       .  A
N681        N966   1.315   1_554  A
N681       Mn689   2.210       .  S
N682        C971   1.356   1_554  A
N683        N684   1.319       .  A
N683        N964   1.315       .  A
N683       Mn690   2.195       .  S
N684        C693   1.352       .  A
N685        N962   1.315   1_554  A
N685        N686   1.321       .  A
N685       Mn689   2.203       .  S
N686        C972   1.355   1_554  A
N687        N960   1.315       .  A
N687        N688   1.318       .  A
N687       Mn690   2.193       .  S
N688        C692   1.352       .  A
Mn689      Cl970   2.547   1_554  S
Mn690      Cl691   2.543       .  S
Cl691      Mn968   2.547       .  S
C692        N961   1.356       .  A
C692        C709   1.481       .  S
C693        N965   1.355       .  A
C693        C733   1.481       .  S
C694        C695   1.405       .  A
C694        C978   1.411       .  A
C695        C696   1.401       .  A
C695        H700   1.083       .  S
C696        C697   1.410       .  A
C696        O701   1.372       .  S
C697        C977   1.404       .  A
C698        C976   1.404   1_554  A
C698        C699   1.399       .  A
C698        H702   1.083       .  S
C699        C973   1.411   1_554  A
C699        O703   1.372       .  S
O701        H705   0.991       .  S
O703        H704   0.991       .  S
C706        C707   1.403       .  A
C706        C990   1.411       .  A
C707        C708   1.397       .  A
C707        H712   1.083       .  S
C708        C709   1.411       .  A
C708        O713   1.372       .  S
C709        C989   1.405       .  A
C710        C988   1.405   1_554  A
C710        C711   1.402       .  A
C710        H714   1.083       .  S
C711        C985   1.411   1_554  A
C711        O715   1.371       .  S
O713        H717   0.991       .  S
O715        H716   0.991       .  S
C718        C719   1.404       .  A
C718        C723   1.410       .  A
C719        C720   1.400       .  A
C719        H724   1.084       .  S
C720        C721   1.408       .  A
C720        O725   1.371       .  S
C721        C722   1.402       .  A
C722        C723   1.398       .  A
C722        H726   1.084       .  S
C723        O727   1.372       .  S
O725       H1008   0.991       .  S
O727        H728   0.993       .  S
H729       O1004   0.991       .  S
C730        C731   1.404       .  A
C730       C1014   1.410       .  A
C731        C732   1.399       .  A
C731        H736   1.083       .  S
C732        C733   1.411       .  A
C732        O737   1.372       .  S
C733       C1013   1.404       .  A
C734       C1012   1.404   1_554  A
C734        C735   1.401       .  A
C734        H738   1.083       .  S
C735       C1009   1.410   1_554  A
C735        O739   1.371       .  S
O737        H741   0.992       .  S
O739        H740   0.992       .  S
C742        C747   1.410   1_545  A
C743        C744   1.397       .  A
C743        H748   1.083       .  S
C744        O749   1.372       .  S
C745        C746   1.404   1_545  A
C746        C747   1.401       .  A
C746        H750   1.084       .  S
C747        O751   1.371       .  S
O749        H753   0.991       .  S
O751        H752   0.991       .  S
C754        C759   1.412       .  A
C755        C756   1.401       .  A
C755        H760   1.083       .  S
C756        C757   1.411   1_565  A
C756        O761   1.372       .  S
C758        C759   1.399       .  A
C758        H762   1.083       .  S
C759        O763   1.371       .  S
O761        H765   0.992       .  S
O763        H764   0.992       .  S
C766        C767   1.402       .  A
C766        C771   1.406       .  A
C767        C768   1.403       .  A
C767        H772   1.084       .  S
C768        C769   1.406       .  A
C768        O773   1.371       .  S
C769        C770   1.401       .  A
C770        C771   1.399       .  A
C770        H774   1.084       .  S
C771        O775   1.372       .  S
O773        H777   0.993       .  S
O775        H776   0.991       .  S
C778        C783   1.409       .  A
C779        C780   1.398       .  A
C779        H784   1.084       .  S
C780        C781   1.410       .  A
C780        O785   1.372       .  S
C782        C783   1.402       .  A
C782        H786   1.084       .  S
C783        O787   1.372       .  S
O785        H789   0.993       .  S
O787        H788   0.991       .  S
C790        C791   1.404       .  A
C790       C1911   1.411       .  A
C791        C792   1.399       .  A
C791        H796   1.083       .  S
C792       C1909   1.411       .  A
C792        O797   1.372       .  S
C793       C1908   1.411       .  A
C793        C794   1.405   1_655  A
C794        C795   1.401       .  A
C794        H798   1.083       .  S
C795       C1906   1.411   1_455  A
C795        O799   1.371       .  S
O797        H801   0.991       .  S
O799        H800   0.991       .  S
C802        C803   1.404       .  A
C802       C1923   1.411       .  A
C803        C804   1.399       .  A
C803        H808   1.083       .  S
C804        C805   1.412       .  A
C804        O809   1.371       .  S
C805       C1922   1.404       .  A
C806       C1921   1.404   1_455  A
C806        C807   1.400       .  A
C806        H810   1.083       .  S
C807       C1918   1.411   1_455  A
C807        O811   1.372       .  S
O809        H813   0.992       .  S
O811        H812   0.992       .  S
C814        C815   1.405   1_655  A
C814       C1935   1.411       .  A
C815        C816   1.401       .  A
C815        H820   1.083       .  S
C816       C1933   1.410   1_455  A
C816        O821   1.371       .  S
C817       C1932   1.410       .  A
C817        C818   1.404       .  A
C818        C819   1.398       .  A
C818        H822   1.083       .  S
C819       C1930   1.411       .  A
C819        O823   1.371       .  S
O821        H825   0.991       .  S
O823        H824   0.992       .  S
C826       C1943   1.404       .  A
C826        C831   1.411   1_655  A
C827       C1942   1.404       .  A
C827        C828   1.398       .  A
C827        H832   1.083       .  S
C828       C1945   1.411       .  A
C828        O833   1.371       .  S
C829       C1944   1.411       .  A
C829        C830   1.405   1_655  A
C830        C831   1.401       .  A
C830        H834   1.083       .  S
C831        O835   1.371       .  S
O833        H837   0.992       .  S
O835        H836   0.992       .  S
N838        N839   1.321       .  A
N838       Mn867   2.206       .  S
N840        N841   1.320       .  A
N840       Mn856   2.205       .  S
N842        N843   1.320       .  A
N842       Mn867   2.199       .  S
N843        C847   1.353   1_565  A
N844        N845   1.321       .  A
N844       Mn856   2.202       .  S
N845        C846   1.351       .  A
C846       C1045   1.468       .  S
C847       C1036   1.484       .  S
N848       N1970   1.315       .  A
N848        N849   1.320       .  A
N848       Mn878   2.202       .  S
N849        C857   1.354       .  A
N850        N851   1.321       .  A
N850       N1968   1.315   1_455  A
N850       Mn856   2.204       .  S
N851        C858   1.355   1_455  A
N852       N1966   1.315       .  A
N852        N853   1.319       .  A
N852       Mn878   2.195       .  S
N853       C1974   1.353       .  A
N854       N1964   1.315   1_455  A
N854        N855   1.321       .  A
N854       Mn856   2.204       .  S
N855       C1973   1.354   1_455  A
Mn856      Cl880   2.544   1_455  S
C857       N1971   1.354       .  A
C857       C1069   1.483       .  S
C858       N1969   1.353       .  A
C858       C1108   1.483       .  S
N859        N860   1.321       .  A
N859       N1981   1.315   1_455  A
N859       Mn867   2.206       .  S
N860       C1984   1.355   1_455  A
N861       N1979   1.315       .  A
N861        N862   1.319       .  A
N861       Mn879   2.197       .  S
N862       C1985   1.352       .  A
N863       N1977   1.315   1_455  A
N863        N864   1.321       .  A
N863       Mn867   2.206       .  S
N864        C869   1.355   1_455  A
N865       N1975   1.315       .  A
N865        N866   1.319       .  A
N865       Mn879   2.193       .  S
N866        C868   1.352       .  A
C868       N1976   1.355       .  A
C868       C1084   1.483       .  S
C869       N1978   1.352       .  A
C869       C1093   1.482       .  S
N870        N871   1.321       .  A
N870       Mn878   2.203       .  S
N871        C881   1.354       .  A
N872        N873   1.320       .  A
N872       Mn879   2.197       .  S
N873        C882   1.353   1_565  A
N874        N875   1.319       .  A
N874       Mn878   2.200       .  S
N876        N877   1.319       .  A
N876       Mn879   2.198       .  S
Mn878     Cl1996   2.547       .  S
Mn879     Cl1438   2.544   1_565  S
Cl880     Mn1994   2.547       .  S
Cl880     Mn1437   2.545       .  S
C881       C1057   1.478       .  S
C882       C1021   1.479       .  S
N883        N884   1.319       .  A
N883       N2005   1.315       .  A
N883       Mn912   2.199       .  S
N884       C2007   1.354       .  A
N885       N2003   1.315   1_455  A
N885        N886   1.321       .  A
N885       Mn901   2.202       .  S
N886       C2008   1.354   1_455  A
N887       N2001   1.315       .  A
N887        N888   1.319       .  A
N887       Mn912   2.200       .  S
N888        C892   1.354       .  A
N889       N1999   1.315   1_455  A
N889        N890   1.320       .  A
N889       Mn901   2.200       .  S
N890        C891   1.354   1_455  A
C891       N2000   1.354       .  A
C891       C1105   1.483       .  S
C892       N2002   1.354       .  A
C892       C1096   1.482       .  S
N893        N894   1.319       .  A
N893       Mn923   2.198       .  S
N894        C902   1.353       .  A
N895        N896   1.320       .  A
N895       Mn901   2.203       .  S
N897        N898   1.320       .  A
N897       Mn923   2.198       .  S
N898        C903   1.354       .  A
N899        N900   1.320       .  A
N899       Mn901   2.201       .  S
C902       C1000   1.476       .  S
C903       C1009   1.481       .  S
N904        N905   1.320       .  A
N904       Mn912   2.201       .  S
N906        N907   1.319       .  A
N906       Mn924   2.203       .  S
N907        C914   1.354       .  A
N908        N909   1.321       .  A
N908       Mn912   2.200       .  S
N910        N911   1.321       .  A
N910       Mn924   2.203       .  S
N911        C913   1.354       .  A
Mn912     Cl1762   2.546       .  S
C913        C976   1.481       .  S
C914        C985   1.481       .  S
N915        N916   1.321       .  A
N915       N2037   1.315   1_455  A
N915       Mn923   2.204       .  S
N916        C926   1.355   1_455  A
N917        N918   1.320       .  A
N917       N2035   1.315       .  A
N917       Mn924   2.202       .  S
N918        C927   1.355       .  A
N919       N2033   1.315   1_455  A
N919        N920   1.319       .  A
N919       Mn923   2.199       .  S
N920       C2043   1.353   1_455  A
N921       N2031   1.315       .  A
N921        N922   1.320       .  A
N921       Mn924   2.202       .  S
N922       C2042   1.353       .  A
Mn923      Cl925   2.547   1_455  S
Mn924     Cl2041   2.545       .  S
Cl925     Mn1749   2.547   1_556  S
Cl925     Mn2040   2.546       .  S
C926       N2038   1.353       .  A
C926       C1072   1.484       .  S
C927       N2036   1.353       .  A
C927       C1081   1.482       .  S
N928        N929   1.321       .  A
N928       Mn957   2.203       .  S
N929        C936   1.354       .  A
N930        N931   1.321       .  A
N930       Mn946   2.203       .  S
N932        N933   1.319       .  A
N932       Mn957   2.196       .  S
N933        C937   1.352       .  A
N934        N935   1.320       .  A
N934       Mn946   2.204       .  S
C936        C973   1.482       .  S
C937        C997   1.476       .  S
N938        N939   1.321       .  A
N938       Mn968   2.207       .  S
N939        C947   1.352       .  A
N940        N941   1.319       .  A
N940       Mn946   2.199       .  S
N941        C948   1.353   1_565  A
N942        N943   1.321       .  A
N942       Mn968   2.205       .  S
N944        N945   1.320       .  A
N944       Mn946   2.200       .  S
C947       C1048   1.468       .  S
C948       C1060   1.479   1_545  S
N949        N950   1.321       .  A
N949       Mn957   2.208       .  S
N951        N952   1.318       .  A
N951       Mn969   2.194       .  S
N953        N954   1.321       .  A
N953       Mn957   2.203       .  S
N954        C959   1.355   1_565  A
N955        N956   1.319       .  A
N955       Mn969   2.195       .  S
N956        C958   1.353       .  A
C958       C1033   1.484       .  S
C959       C1024   1.479       .  S
N960        N961   1.322       .  A
N960       Mn968   2.210       .  S
N962        N963   1.319       .  A
N962       Mn969   2.195       .  S
N963        C972   1.353       .  A
N964        N965   1.321       .  A
N964       Mn968   2.203       .  S
N966        N967   1.318       .  A
N966       Mn969   2.193       .  S
N967        C971   1.352       .  A
Mn969      Cl970   2.543       .  S
C971        C988   1.481       .  S
C972       C1012   1.482       .  S
C973        C974   1.405       .  A
C974        C975   1.401       .  A
C974        H979   1.083       .  S
C975        C976   1.410       .  A
C975        O980   1.372       .  S
C977        C978   1.399       .  A
C977        H981   1.083       .  S
C978        O982   1.372       .  S
O980        H984   0.991       .  S
O982        H983   0.991       .  S
C985        C986   1.403       .  A
C986        C987   1.397       .  A
C986        H991   1.083       .  S
C987        C988   1.411       .  A
C987        O992   1.372       .  S
C989        C990   1.402       .  A
C989        H993   1.083       .  S
C990        O994   1.371       .  S
O992        H996   0.991       .  S
O994        H995   0.991       .  S
C997        C998   1.404   1_556  A
C997       C1002   1.410       .  A
C998        C999   1.400       .  A
C998       H1003   1.084       .  S
C999       C1000   1.409   1_554  A
C999       O1004   1.371       .  S
C1000      C1001   1.402       .  A
C1001      C1002   1.398       .  A
C1001      H1005   1.084       .  S
C1002      O1006   1.372       .  S
O1006      H1007   0.993       .  S
C1009      C1010   1.404       .  A
C1010      C1011   1.399       .  A
C1010      H1015   1.083       .  S
C1011      C1012   1.411       .  A
C1011      O1016   1.372       .  S
C1013      C1014   1.401       .  A
C1013      H1017   1.083       .  S
C1014      O1018   1.371       .  S
O1016      H1020   0.992       .  S
O1018      H1019   0.992       .  S
C1021      C1026   1.410   1_545  A
C1022      C1023   1.397       .  A
C1022      H1027   1.083       .  S
C1023      O1028   1.372       .  S
C1024      C1025   1.404   1_545  A
C1025      C1026   1.401       .  A
C1025      H1029   1.084       .  S
C1026      O1030   1.371       .  S
O1028      H1032   0.991       .  S
O1030      H1031   0.991       .  S
C1033      C1038   1.412       .  A
C1034      C1035   1.401       .  A
C1034      H1039   1.083       .  S
C1035      C1036   1.411   1_565  A
C1035      O1040   1.372       .  S
C1037      C1038   1.399       .  A
C1037      H1041   1.083       .  S
C1038      O1042   1.371       .  S
O1040      H1044   0.992       .  S
O1042      H1043   0.992       .  S
C1045      C1046   1.402       .  A
C1045      C1050   1.406       .  A
C1046      C1047   1.403       .  A
C1046      H1051   1.084       .  S
C1047      C1048   1.406       .  A
C1047      O1052   1.371       .  S
C1048      C1049   1.401       .  A
C1049      C1050   1.399       .  A
C1049      H1053   1.084       .  S
C1050      O1054   1.372       .  S
O1052      H1056   0.993       .  S
O1054      H1055   0.991       .  S
C1057      C1062   1.409       .  A
C1058      C1059   1.398       .  A
C1058      H1063   1.084       .  S
C1059      C1060   1.410       .  A
C1059      O1064   1.372       .  S
C1061      C1062   1.402       .  A
C1061      H1065   1.084       .  S
C1062      O1066   1.372       .  S
O1064      H1068   0.993       .  S
O1066      H1067   0.991       .  S
C1069      C1070   1.404       .  A
C1069      C2190   1.411       .  A
C1070      C1071   1.399       .  A
C1070      H1075   1.083       .  S
C1071      C2188   1.411       .  A
C1071      O1076   1.372       .  S
C1072      C2187   1.411       .  A
C1072      C1073   1.405   1_655  A
C1073      C1074   1.401       .  A
C1073      H1077   1.083       .  S
C1074      C2185   1.411   1_455  A
C1074      O1078   1.371       .  S
O1076      H1080   0.991       .  S
O1078      H1079   0.991       .  S
C1081      C1082   1.404       .  A
C1081      C2202   1.411       .  A
C1082      C1083   1.399       .  A
C1082      H1087   1.083       .  S
C1083      C1084   1.412       .  A
C1083      O1088   1.371       .  S
C1084      C2201   1.404       .  A
C1085      C2200   1.404   1_455  A
C1085      C1086   1.400       .  A
C1085      H1089   1.083       .  S
C1086      C2197   1.411   1_455  A
C1086      O1090   1.372       .  S
O1088      H1092   0.992       .  S
O1090      H1091   0.992       .  S
C1093      C1094   1.405   1_655  A
C1093      C2214   1.411       .  A
C1094      C1095   1.401       .  A
C1094      H1099   1.083       .  S
C1095      C2212   1.410   1_455  A
C1095      O1100   1.371       .  S
C1096      C2211   1.410       .  A
C1096      C1097   1.404       .  A
C1097      C1098   1.398       .  A
C1097      H1101   1.083       .  S
C1098      C2209   1.411       .  A
C1098      O1102   1.371       .  S
O1100      H1104   0.991       .  S
O1102      H1103   0.992       .  S
C1105      C2222   1.404       .  A
C1105      C1110   1.411   1_655  A
C1106      C2221   1.404       .  A
C1106      C1107   1.398       .  A
C1106      H1111   1.083       .  S
C1107      C2224   1.411       .  A
C1107      O1112   1.371       .  S
C1108      C2223   1.411       .  A
C1108      C1109   1.405   1_655  A
C1109      C1110   1.400       .  A
C1109      H1113   1.083       .  S
C1110      O1114   1.371       .  S
O1112      H1116   0.992       .  S
O1114      H1115   0.992       .  S
N1117      N1118   1.321       .  A
N1117      N1681   1.316       .  A
N1117     Mn1146   2.206       .  S
N1118      C1683   1.352       .  A
N1119      N1679   1.315   1_545  A
N1119      N1120   1.320       .  A
N1119     Mn1135   2.205       .  S
N1120      C1684   1.355       .  A
N1121      N1677   1.315       .  A
N1121      N1122   1.320       .  A
N1121     Mn1146   2.199       .  S
N1122      C1126   1.353       .  A
N1123      N1675   1.316   1_545  A
N1123      N1124   1.321       .  A
N1123     Mn1135   2.202       .  S
N1124      C1125   1.351       .  A
C1125      N1676   1.352   1_545  A
C1125      C1324   1.468       .  S
C1126      N1678   1.355       .  A
C1126      C1315   1.484       .  S
N1127      N1128   1.320       .  A
N1127     Mn1157   2.202       .  S
N1128      C1136   1.354       .  A
N1129      N1130   1.321       .  A
N1129     Mn1135   2.204       .  S
N1130      C1137   1.355       .  A
N1131      N1132   1.319       .  A
N1131     Mn1157   2.196       .  S
N1133      N1134   1.321       .  A
N1133     Mn1135   2.204       .  S
Mn1135    Cl1159   2.544       .  S
C1136      C1348   1.483       .  S
C1137      C1387   1.483       .  S
N1138      N1139   1.321       .  A
N1138     Mn1146   2.206       .  S
N1140      N1141   1.319       .  A
N1140     Mn1158   2.197       .  S
N1142      N1143   1.321       .  A
N1142     Mn1146   2.206       .  S
N1143      C1148   1.355       .  A
N1144      N1145   1.319       .  A
N1144     Mn1158   2.193       .  S
N1145      C1147   1.352       .  A
Mn1146    Cl1717   2.548       .  S
C1147      C1363   1.483       .  S
C1148      C1372   1.482       .  S
N1149      N1150   1.321       .  A
N1149      N1713   1.315   1_545  A
N1149     Mn1157   2.203       .  S
N1150      C1160   1.354       .  A
N1151      N1152   1.320       .  A
N1151      N1711   1.315       .  A
N1151     Mn1158   2.196       .  S
N1152      C1161   1.353       .  A
N1153      N1709   1.315   1_545  A
N1153      N1154   1.319       .  A
N1153     Mn1157   2.200       .  S
N1154      C1719   1.354       .  A
N1155      N1707   1.315       .  A
N1155      N1156   1.319       .  A
N1155     Mn1158   2.199       .  S
N1156      C1718   1.353       .  A
Cl1159    Mn1704   2.548   1_545  S
C1160      N1714   1.353   1_545  A
C1160      C1336   1.478       .  S
C1161      N1712   1.354       .  A
C1161      C1300   1.479       .  S
N1162      N1163   1.319       .  A
N1162     Mn1191   2.200       .  S
N1164      N1165   1.321       .  A
N1164     Mn1180   2.202       .  S
N1166      N1167   1.319       .  A
N1166     Mn1191   2.200       .  S
N1167      C1171   1.354       .  A
N1168      N1169   1.320       .  A
N1168     Mn1180   2.200       .  S
N1169      C1170   1.354       .  A
C1170      C1384   1.483       .  S
C1171      C1375   1.482       .  S
N1172      N1457   1.315       .  A
N1172      N1173   1.319       .  A
N1172     Mn1202   2.198       .  S
N1173      C1181   1.353       .  A
N1174      N1175   1.320       .  A
N1174      N1455   1.315   1_554  A
N1174     Mn1180   2.203       .  S
N1175      C1461   1.354   1_554  A
N1176      N1453   1.315       .  A
N1176      N1177   1.320       .  A
N1176     Mn1202   2.198       .  S
N1177      C1182   1.354       .  A
N1178      N1451   1.315   1_554  A
N1178      N1179   1.320       .  A
N1178     Mn1180   2.201       .  S
N1179      C1460   1.353   1_554  A
Mn1180    Cl1483   2.545   1_554  S
C1181      N1458   1.353       .  A
C1181      C1279   1.476       .  S
C1182      N1454   1.354       .  A
C1182      C1288   1.481       .  S
N1183      N1184   1.320       .  A
N1183      N1468   1.315   1_554  A
N1183     Mn1191   2.203       .  S
N1184      C1471   1.354   1_554  A
N1185      N1466   1.315       .  A
N1185      N1186   1.319       .  A
N1185     Mn1203   2.203       .  S
N1186      C1193   1.354       .  A
N1187      N1464   1.315   1_554  A
N1187      N1188   1.321       .  A
N1187     Mn1191   2.200       .  S
N1188      C1472   1.353   1_554  A
N1189      N1462   1.315       .  A
N1189      N1190   1.321       .  A
N1189     Mn1203   2.203       .  S
N1190      C1192   1.354       .  A
C1192      N1463   1.353       .  A
C1192      C1255   1.481       .  S
C1193      N1467   1.353       .  A
C1193      C1264   1.481       .  S
N1194      N1195   1.321       .  A
N1194     Mn1202   2.204       .  S
N1195      C1205   1.355       .  A
N1196      N1197   1.320       .  A
N1196     Mn1203   2.202       .  S
N1197      C1206   1.355       .  A
N1198      N1199   1.319       .  A
N1198     Mn1202   2.199       .  S
N1200      N1201   1.320       .  A
N1200     Mn1203   2.202       .  S
Mn1202    Cl1204   2.547       .  S
Cl1204    Mn1459   2.544       .  S
C1205      C1351   1.483       .  S
C1206      C1360   1.482       .  S
N1207      N1208   1.321       .  A
N1207      N1492   1.316       .  A
N1207     Mn1236   2.203       .  S
N1208      C1215   1.354       .  A
N1209      N1490   1.315   1_554  A
N1209      N1210   1.321       .  A
N1209     Mn1225   2.204       .  S
N1210      C1495   1.354   1_554  A
N1211      N1488   1.315       .  A
N1211      N1212   1.319       .  A
N1211     Mn1236   2.196       .  S
N1212      C1216   1.352       .  A
N1213      N1486   1.316   1_554  A
N1213      N1214   1.320       .  A
N1213     Mn1225   2.204       .  S
N1214      C1494   1.353   1_554  A
C1215      N1493   1.353       .  A
C1215      C1252   1.482       .  S
C1216      N1489   1.354       .  A
C1216      C1276   1.476       .  S
N1217      N1781   1.316   1_545  A
N1217      N1218   1.321       .  A
N1217     Mn1247   2.208       .  S
N1218      C1226   1.352       .  A
N1219      N1220   1.319       .  A
N1219      N1779   1.316       .  A
N1219     Mn1225   2.199       .  S
N1220      C1227   1.352       .  A
N1221      N1777   1.315   1_545  A
N1221      N1222   1.321       .  A
N1221     Mn1247   2.205       .  S
N1222      C1785   1.354       .  A
N1223      N1775   1.316       .  A
N1223      N1224   1.320       .  A
N1223     Mn1225   2.200       .  S
N1224      C1784   1.351       .  A
Mn1225    Cl2086   2.546   1_554  S
C1226      N1782   1.351   1_545  A
C1226      C1327   1.467       .  S
C1227      N1780   1.354       .  A
C1227      C1339   1.479       .  S
N1228      N1229   1.321       .  A
N1228      N1792   1.315       .  A
N1228     Mn1236   2.208       .  S
N1229      C1795   1.355       .  A
N1230      N1790   1.315   1_545  A
N1230      N1231   1.318       .  A
N1230     Mn1248   2.194       .  S
N1231      C1796   1.352       .  A
N1232      N1788   1.315       .  A
N1232      N1233   1.321       .  A
N1232     Mn1236   2.203       .  S
N1233      C1238   1.355       .  A
N1234      N1786   1.315   1_545  A
N1234      N1235   1.319       .  A
N1234     Mn1248   2.195       .  S
N1235      C1237   1.353       .  A
Mn1236    Cl1807   2.548       .  S
C1237      N1787   1.355   1_545  A
C1237      C1312   1.484       .  S
C1238      N1789   1.352       .  A
C1238      C1303   1.479       .  S
N1239      N1240   1.322       .  A
N1239      N1524   1.315   1_554  A
N1239     Mn1247   2.209       .  S
N1240      C1529   1.356   1_554  A
N1241      N1242   1.319       .  A
N1241      N1522   1.315       .  A
N1241     Mn1248   2.195       .  S
N1242      C1251   1.352       .  A
N1243      N1520   1.315   1_554  A
N1243      N1244   1.321       .  A
N1243     Mn1247   2.203       .  S
N1244      C1530   1.355   1_554  A
N1245      N1518   1.315       .  A
N1245      N1246   1.318       .  A
N1245     Mn1248   2.193       .  S
N1246      C1250   1.352       .  A
Mn1247    Cl1528   2.546   1_554  S
Mn1248    Cl1249   2.543       .  S
Cl1249    Mn2062   2.546   1_545  S
Cl1249    Mn1794   2.548   1_545  S
Cl1249    Mn1526   2.547       .  S
C1250      N1519   1.356       .  A
C1250      C1267   1.481       .  S
C1251      N1523   1.355       .  A
C1251      C1291   1.481       .  S
C1252      C1253   1.405       .  A
C1252      C1536   1.411       .  A
C1253      C1254   1.401       .  A
C1253      H1258   1.083       .  S
C1254      C1255   1.410       .  A
C1254      O1259   1.372       .  S
C1255      C1535   1.404       .  A
C1256      C1534   1.404   1_554  A
C1256      C1257   1.399       .  A
C1256      H1260   1.083       .  S
C1257      C1531   1.411       .  A
C1257      O1261   1.372       .  S
O1259      H1263   0.991       .  S
O1261      H1262   0.993       .  S
C1264      C1265   1.403       .  A
C1264      C1548   1.411       .  A
C1265      C1266   1.397       .  A
C1265      H1270   1.083       .  S
C1266      C1267   1.411       .  A
C1266      O1271   1.372       .  S
C1267      C1547   1.405       .  A
C1268      C1546   1.405   1_554  A
C1268      C1269   1.402       .  A
C1268      H1272   1.083       .  S
C1269      C1543   1.411   1_554  A
C1269      O1273   1.371       .  S
O1271      H1275   0.991       .  S
O1273      H1274   0.991       .  S
C1276      C1277   1.404       .  A
C1276      C1281   1.410       .  A
C1277      C1278   1.400       .  A
C1277      H1282   1.084       .  S
C1278      C1279   1.408       .  A
C1278      O1283   1.371       .  S
C1279      C1280   1.402       .  A
C1280      C1281   1.398       .  A
C1280      H1284   1.084       .  S
C1281      O1285   1.372       .  S
O1283      H1566   0.991       .  S
O1285      H1286   0.993       .  S
H1287      O1562   0.991       .  S
C1288      C1289   1.404       .  A
C1288      C1572   1.410       .  A
C1289      C1290   1.399       .  A
C1289      H1294   1.083       .  S
C1290      C1291   1.411       .  A
C1290      O1295   1.372       .  S
C1291      C1571   1.404       .  A
C1292      C1570   1.404   1_554  A
C1292      C1293   1.401       .  A
C1292      H1296   1.083       .  S
C1293      C1567   1.410   1_554  A
C1293      O1297   1.371       .  S
O1295      H1299   0.992       .  S
O1297      H1298   0.992       .  S
C1300      C1859   1.403       .  A
C1300      C1305   1.410       .  A
C1301      C1858   1.403       .  A
C1301      C1302   1.397       .  A
C1301      H1306   1.083       .  S
C1302      C1861   1.411       .  A
C1302      O1307   1.372       .  S
C1303      C1860   1.411       .  A
C1303      C1304   1.404       .  A
C1304      C1305   1.401       .  A
C1304      H1308   1.084       .  S
C1305      O1309   1.371       .  S
O1307      H1311   0.991       .  S
O1309      H1310   0.991       .  S
C1312      C1871   1.405   1_545  A
C1312      C1317   1.412       .  A
C1313      C1870   1.405       .  A
C1313      C1314   1.401       .  A
C1313      H1318   1.083       .  S
C1314      C1315   1.411       .  A
C1314      O1319   1.372       .  S
C1315      C1874   1.404       .  A
C1316      C1873   1.404       .  A
C1316      C1317   1.399       .  A
C1316      H1320   1.083       .  S
C1317      O1321   1.371       .  S
O1319      H1323   0.992       .  S
O1321      H1322   0.992       .  S
C1324      C1325   1.402       .  A
C1324      C1329   1.406   1_545  A
C1325      C1326   1.403       .  A
C1325      H1330   1.084       .  S
C1326      C1327   1.406       .  A
C1326      O1331   1.371       .  S
C1327      C1328   1.401   1_545  A
C1328      C1329   1.399       .  A
C1328      H1332   1.084       .  S
C1329      O1333   1.372       .  S
O1331      H1335   0.993       .  S
O1333      H1334   0.991   1_565  S
C1336      C1895   1.403   1_545  A
C1336      C1341   1.409       .  A
C1337      C1894   1.403       .  A
C1337      C1338   1.399       .  A
C1337      H1342   1.084       .  S
C1338      C1339   1.410       .  A
C1338      O1343   1.372       .  S
C1339      C1898   1.405       .  A
C1340      C1897   1.405   1_545  A
C1340      C1341   1.402       .  A
C1340      H1344   1.084       .  S
C1341      O1345   1.372       .  S
O1343      H1347   0.993       .  S
O1345      H1346   0.991       .  S
C1348      C1349   1.404       .  A
C1349      C1350   1.399       .  A
C1349      H1354   1.083       .  S
C1350      O1355   1.372       .  S
C1351      C1352   1.405       .  A
C1352      C1353   1.401       .  A
C1352      H1356   1.083       .  S
C1353      O1357   1.371       .  S
O1355      H1359   0.991       .  S
O1357      H1358   0.991       .  S
C1360      C1361   1.404       .  A
C1361      C1362   1.399       .  A
C1361      H1366   1.083       .  S
C1362      C1363   1.412       .  A
C1362      O1367   1.371       .  S
C1364      C1365   1.400       .  A
C1364      H1368   1.083       .  S
C1365      O1369   1.372       .  S
O1367      H1371   0.992       .  S
O1369      H1370   0.992       .  S
C1372      C1373   1.405       .  A
C1373      C1374   1.401       .  A
C1373      H1378   1.083       .  S
C1374      O1379   1.371       .  S
C1375      C1376   1.404       .  A
C1376      C1377   1.398       .  A
C1376      H1380   1.083       .  S
C1377      O1381   1.371       .  S
O1379      H1383   0.991       .  S
O1381      H1382   0.992       .  S
C1384      C1389   1.411       .  A
C1385      C1386   1.398       .  A
C1385      H1390   1.083       .  S
C1386      O1391   1.371       .  S
C1387      C1388   1.405       .  A
C1388      C1389   1.400       .  A
C1388      H1392   1.083       .  S
C1389      O1393   1.371       .  S
O1391      H1395   0.992       .  S
O1393      H1394   0.992       .  S
N1396      N1397   1.321       .  A
N1396      N1960   1.316       .  A
N1396     Mn1425   2.206       .  S
N1397      C1962   1.352       .  A
N1398      N1958   1.315   1_545  A
N1398      N1399   1.320       .  A
N1398     Mn1414   2.205       .  S
N1399      C1963   1.355       .  A
N1400      N1956   1.315       .  A
N1400      N1401   1.320       .  A
N1400     Mn1425   2.199       .  S
N1401      C1405   1.353       .  A
N1402      N1954   1.316   1_545  A
N1402      N1403   1.321       .  A
N1402     Mn1414   2.202       .  S
N1403      C1404   1.351       .  A
C1404      N1955   1.352   1_545  A
C1404      C1603   1.468       .  S
C1405      N1957   1.355       .  A
C1405      C1594   1.484       .  S
N1406      N1407   1.320       .  A
N1406     Mn1436   2.202       .  S
N1407      C1415   1.354       .  A
N1408      N1409   1.321       .  A
N1408     Mn1414   2.204       .  S
N1409      C1416   1.355       .  A
N1410      N1411   1.319       .  A
N1410     Mn1436   2.196       .  S
N1412      N1413   1.321       .  A
N1412     Mn1414   2.204       .  S
Mn1414    Cl1438   2.544       .  S
C1415      C1627   1.483       .  S
C1416      C1666   1.483       .  S
N1417      N1418   1.321       .  A
N1417     Mn1425   2.206       .  S
N1419      N1420   1.319       .  A
N1419     Mn1437   2.197       .  S
N1421      N1422   1.321       .  A
N1421     Mn1425   2.206       .  S
N1422      C1427   1.355       .  A
N1423      N1424   1.319       .  A
N1423     Mn1437   2.193       .  S
N1424      C1426   1.352       .  A
Mn1425    Cl1996   2.548       .  S
C1426      C1642   1.483       .  S
C1427      C1651   1.482       .  S
N1428      N1429   1.321       .  A
N1428      N1992   1.315   1_545  A
N1428     Mn1436   2.203       .  S
N1429      C1439   1.354       .  A
N1430      N1431   1.320       .  A
N1430      N1990   1.315       .  A
N1430     Mn1437   2.197       .  S
N1431      C1440   1.353       .  A
N1432      N1988   1.315   1_545  A
N1432      N1433   1.319       .  A
N1432     Mn1436   2.200       .  S
N1433      C1998   1.354       .  A
N1434      N1986   1.315       .  A
N1434      N1435   1.319       .  A
N1434     Mn1437   2.198       .  S
N1435      C1997   1.353       .  A
Cl1438    Mn1983   2.548   1_545  S
C1439      N1993   1.353   1_545  A
C1439      C1615   1.478       .  S
C1440      N1991   1.354       .  A
C1440      C1579   1.479       .  S
N1441      N1442   1.319       .  A
N1441     Mn1470   2.199       .  S
N1443      N1444   1.321       .  A
N1443     Mn1459   2.202       .  S
N1445      N1446   1.319       .  A
N1445     Mn1470   2.200       .  S
N1446      C1450   1.354       .  A
N1447      N1448   1.320       .  A
N1447     Mn1459   2.200       .  S
N1448      C1449   1.354       .  A
C1449      C1663   1.483       .  S
C1450      C1654   1.482       .  S
N1451      N1452   1.319       .  A
N1451     Mn1481   2.198       .  S
N1452      C1460   1.353       .  A
N1453      N1454   1.320       .  A
N1453     Mn1459   2.203       .  S
N1455      N1456   1.320       .  A
N1455     Mn1481   2.198       .  S
N1456      C1461   1.354       .  A
N1457      N1458   1.320       .  A
N1457     Mn1459   2.201       .  S
C1460      C1558   1.476       .  S
C1461      C1567   1.481       .  S
N1462      N1463   1.320       .  A
N1462     Mn1470   2.202       .  S
N1464      N1465   1.319       .  A
N1464     Mn1482   2.203       .  S
N1465      C1472   1.354       .  A
N1466      N1467   1.321       .  A
N1466     Mn1470   2.200       .  S
N1468      N1469   1.321       .  A
N1468     Mn1482   2.204       .  S
N1469      C1471   1.354       .  A
C1471      C1534   1.481       .  S
C1472      C1543   1.481       .  S
N1473      N1474   1.321       .  A
N1473     Mn1481   2.204       .  S
N1474      C1484   1.355       .  A
N1475      N1476   1.320       .  A
N1475     Mn1482   2.201       .  S
N1476      C1485   1.355       .  A
N1477      N1478   1.319       .  A
N1477     Mn1481   2.199       .  S
N1479      N1480   1.320       .  A
N1479     Mn1482   2.202       .  S
Mn1481    Cl1483   2.547       .  S
C1484      C1630   1.483       .  S
C1485      C1639   1.482       .  S
N1486      N1487   1.321       .  A
N1486     Mn1515   2.203       .  S
N1487      C1494   1.354       .  A
N1488      N1489   1.321       .  A
N1488     Mn1504   2.203       .  S
N1490      N1491   1.319       .  A
N1490     Mn1515   2.197       .  S
N1491      C1495   1.352       .  A
N1492      N1493   1.320       .  A
N1492     Mn1504   2.204       .  S
C1494      C1531   1.482   1_556  S
C1495      C1555   1.477       .  S
N1496      N2060   1.316   1_545  A
N1496      N1497   1.321       .  A
N1496     Mn1526   2.207       .  S
N1497      C1505   1.352       .  A
N1498      N1499   1.319       .  A
N1498      N2058   1.316       .  A
N1498     Mn1504   2.199       .  S
N1499      C1506   1.353       .  A
N1500      N2056   1.316   1_545  A
N1500      N1501   1.321       .  A
N1500     Mn1526   2.205       .  S
N1501      C2064   1.354       .  A
N1502      N2054   1.316       .  A
N1502      N1503   1.320       .  A
N1502     Mn1504   2.200       .  S
N1503      C2063   1.351       .  A
Mn1504    Cl1807   2.546       .  S
C1505      N2061   1.351   1_545  A
C1505      C1606   1.468       .  S
C1506      N2059   1.354       .  A
C1506      C1618   1.479       .  S
N1507      N1508   1.321       .  A
N1507      N2071   1.315       .  A
N1507     Mn1515   2.207       .  S
N1508      C2074   1.355       .  A
N1509      N2069   1.314   1_545  A
N1509      N1510   1.318       .  A
N1509     Mn1527   2.194       .  S
N1510      C2075   1.352       .  A
N1511      N2067   1.315       .  A
N1511      N1512   1.321       .  A
N1511     Mn1515   2.202       .  S
N1512      C1517   1.355       .  A
N1513      N2065   1.314   1_545  A
N1513      N1514   1.319       .  A
N1513     Mn1527   2.196       .  S
N1514      C1516   1.353       .  A
Mn1515    Cl2086   2.548       .  S
C1516      N2066   1.355   1_545  A
C1516      C1591   1.484       .  S
C1517      N2068   1.352       .  A
C1517      C1582   1.479       .  S
N1518      N1519   1.322       .  A
N1518     Mn1526   2.210       .  S
N1520      N1521   1.319       .  A
N1520     Mn1527   2.195       .  S
N1521      C1530   1.352       .  A
N1522      N1523   1.321       .  A
N1522     Mn1526   2.203       .  S
N1524      N1525   1.318       .  A
N1524     Mn1527   2.193       .  S
N1525      C1529   1.352       .  A
Mn1527    Cl1528   2.542       .  S
Cl1528    Mn1783   2.544   1_546  S
Cl1528    Mn2073   2.548   1_545  S
C1529      C1546   1.481       .  S
C1530      C1570   1.481       .  S
C1531      C1532   1.405   1_554  A
C1532      C1533   1.401       .  A
C1532      H1537   1.084       .  S
C1533      C1534   1.410       .  A
C1533      O1538   1.372       .  S
C1535      C1536   1.399       .  A
C1535      H1539   1.083       .  S
C1536      O1540   1.372       .  S
O1538      H1542   0.991       .  S
O1540      H1541   0.991       .  S
C1543      C1544   1.403       .  A
C1544      C1545   1.397       .  A
C1544      H1549   1.083       .  S
C1545      C1546   1.411       .  A
C1545      O1550   1.372       .  S
C1547      C1548   1.402       .  A
C1547      H1551   1.083       .  S
C1548      O1552   1.371       .  S
O1550      H1554   0.991       .  S
O1552      H1553   0.991       .  S
C1555      C1556   1.404   1_556  A
C1555      C1560   1.410       .  A
C1556      C1557   1.400       .  A
C1556      H1561   1.084       .  S
C1557      C1558   1.408   1_554  A
C1557      O1562   1.371       .  S
C1558      C1559   1.402       .  A
C1559      C1560   1.398       .  A
C1559      H1563   1.084       .  S
C1560      O1564   1.372       .  S
O1564      H1565   0.993       .  S
C1567      C1568   1.404       .  A
C1568      C1569   1.399       .  A
C1568      H1573   1.083       .  S
C1569      C1570   1.411       .  A
C1569      O1574   1.372       .  S
C1571      C1572   1.401       .  A
C1571      H1575   1.083       .  S
C1572      O1576   1.371       .  S
O1574      H1578   0.992       .  S
O1576      H1577   0.992       .  S
C1579      C2138   1.403       .  A
C1579      C1584   1.410       .  A
C1580      C2137   1.403       .  A
C1580      C1581   1.397       .  A
C1580      H1585   1.083       .  S
C1581      C2140   1.411       .  A
C1581      O1586   1.372       .  S
C1582      C2139   1.411       .  A
C1582      C1583   1.404       .  A
C1583      C1584   1.401       .  A
C1583      H1587   1.084       .  S
C1584      O1588   1.371       .  S
O1586      H1590   0.991       .  S
O1588      H1589   0.991       .  S
C1591      C2150   1.405   1_545  A
C1591      C1596   1.412       .  A
C1592      C2149   1.405       .  A
C1592      C1593   1.401       .  A
C1592      H1597   1.083       .  S
C1593      C1594   1.411       .  A
C1593      O1598   1.372       .  S
C1594      C2153   1.404       .  A
C1595      C2152   1.404       .  A
C1595      C1596   1.399       .  A
C1595      H1599   1.083       .  S
C1596      O1600   1.371       .  S
O1598      H1602   0.992       .  S
O1600      H1601   0.992       .  S
C1603      C1604   1.402       .  A
C1603      C1608   1.406   1_545  A
C1604      C1605   1.403       .  A
C1604      H1609   1.084       .  S
C1605      C1606   1.406       .  A
C1605      O1610   1.371       .  S
C1606      C1607   1.401   1_545  A
C1607      C1608   1.399       .  A
C1607      H1611   1.084       .  S
C1608      O1612   1.372       .  S
O1610      H1614   0.993       .  S
O1612      H1613   0.991   1_565  S
C1615      C2174   1.403   1_545  A
C1615      C1620   1.409       .  A
C1616      C2173   1.403       .  A
C1616      C1617   1.398       .  A
C1616      H1621   1.084       .  S
C1617      C1618   1.410       .  A
C1617      O1622   1.372       .  S
C1618      C2177   1.405       .  A
C1619      C2176   1.405   1_545  A
C1619      C1620   1.402       .  A
C1619      H1623   1.084       .  S
C1620      O1624   1.372       .  S
O1622      H1626   0.993       .  S
O1624      H1625   0.991       .  S
C1627      C1628   1.404       .  A
C1628      C1629   1.399       .  A
C1628      H1633   1.083       .  S
C1629      O1634   1.372       .  S
C1630      C1631   1.405       .  A
C1631      C1632   1.401       .  A
C1631      H1635   1.083       .  S
C1632      O1636   1.371       .  S
O1634      H1638   0.991       .  S
O1636      H1637   0.991       .  S
C1639      C1640   1.404       .  A
C1640      C1641   1.399       .  A
C1640      H1645   1.083       .  S
C1641      C1642   1.412       .  A
C1641      O1646   1.371       .  S
C1643      C1644   1.400       .  A
C1643      H1647   1.083       .  S
C1644      O1648   1.372       .  S
O1646      H1650   0.992       .  S
O1648      H1649   0.992       .  S
C1651      C1652   1.405       .  A
C1652      C1653   1.401       .  A
C1652      H1657   1.083       .  S
C1653      O1658   1.371       .  S
C1654      C1655   1.404       .  A
C1655      C1656   1.398       .  A
C1655      H1659   1.083       .  S
C1656      O1660   1.371       .  S
O1658      H1662   0.991       .  S
O1660      H1661   0.992       .  S
C1663      C1668   1.411       .  A
C1664      C1665   1.398       .  A
C1664      H1669   1.083       .  S
C1665      O1670   1.371       .  S
C1666      C1667   1.405       .  A
C1667      C1668   1.400       .  A
C1667      H1671   1.083       .  S
C1668      O1672   1.371       .  S
O1670      H1674   0.992       .  S
O1672      H1673   0.992       .  S
N1675      N1676   1.321       .  A
N1675     Mn1704   2.206       .  S
N1677      N1678   1.320       .  A
N1677     Mn1693   2.205       .  S
N1679      N1680   1.320       .  A
N1679     Mn1704   2.199       .  S
N1680      C1684   1.353   1_565  A
N1681      N1682   1.321       .  A
N1681     Mn1693   2.202       .  S
N1682      C1683   1.351       .  A
C1683      C1882   1.468       .  S
C1684      C1873   1.484       .  S
N1685      N1686   1.320       .  A
N1685     Mn1715   2.202       .  S
N1686      C1694   1.354       .  A
N1687      N1688   1.321       .  A
N1687     Mn1693   2.204       .  S
N1688      C1695   1.355       .  A
N1689      N1690   1.319       .  A
N1689     Mn1715   2.196       .  S
N1691      N1692   1.321       .  A
N1691     Mn1693   2.204       .  S
Mn1693    Cl1717   2.544       .  S
C1694      C1906   1.483       .  S
C1695      C1945   1.483       .  S
N1696      N1697   1.321       .  A
N1696     Mn1704   2.206       .  S
N1698      N1699   1.319       .  A
N1698     Mn1716   2.197       .  S
N1700      N1701   1.321       .  A
N1700     Mn1704   2.206       .  S
N1701      C1706   1.355       .  A
N1702      N1703   1.319       .  A
N1702     Mn1716   2.193       .  S
N1703      C1705   1.352       .  A
C1705      C1921   1.483       .  S
C1706      C1930   1.482       .  S
N1707      N1708   1.321       .  A
N1707     Mn1715   2.203       .  S
N1708      C1718   1.354       .  A
N1709      N1710   1.320       .  A
N1709     Mn1716   2.196       .  S
N1710      C1719   1.353   1_565  A
N1711      N1712   1.319       .  A
N1711     Mn1715   2.200       .  S
N1713      N1714   1.319       .  A
N1713     Mn1716   2.199       .  S
C1718      C1894   1.478       .  S
C1719      C1858   1.479       .  S
N1720      N1721   1.320       .  A
N1720     Mn1749   2.201       .  S
N1722      N1723   1.321       .  A
N1722     Mn1738   2.202       .  S
N1724      N1725   1.319       .  A
N1724     Mn1749   2.200       .  S
N1725      C1729   1.354       .  A
N1726      N1727   1.320       .  A
N1726     Mn1738   2.200       .  S
N1727      C1728   1.354       .  A
C1728      C1942   1.483       .  S
C1729      C1933   1.482       .  S
N1730      N2015   1.315       .  A
N1730      N1731   1.319       .  A
N1730     Mn1760   2.198       .  S
N1731      C1739   1.353       .  A
N1732      N1733   1.320       .  A
N1732      N2013   1.315   1_554  A
N1732     Mn1738   2.203       .  S
N1733      C2019   1.354   1_554  A
N1734      N2011   1.315       .  A
N1734      N1735   1.320       .  A
N1734     Mn1760   2.198       .  S
N1735      C1740   1.354       .  A
N1736      N2009   1.315   1_554  A
N1736      N1737   1.320       .  A
N1736     Mn1738   2.201       .  S
N1737      C2018   1.353   1_554  A
Mn1738    Cl2041   2.545   1_554  S
C1739      N2016   1.353       .  A
C1739      C1837   1.476       .  S
C1740      N2012   1.354       .  A
C1740      C1846   1.481       .  S
N1741      N1742   1.322       .  A
N1741      N2026   1.315   1_554  A
N1741     Mn1749   2.207       .  S
N1742      C2029   1.356   1_554  A
N1743      N2024   1.315       .  A
N1743      N1744   1.319       .  A
N1743     Mn1761   2.203       .  S
N1744      C1751   1.354       .  A
N1745      N2022   1.315   1_554  A
N1745      N1746   1.321       .  A
N1745     Mn1749   2.200       .  S
N1746      C2030   1.353   1_554  A
N1747      N2020   1.315       .  A
N1747      N1748   1.321       .  A
N1747     Mn1761   2.203       .  S
N1748      C1750   1.354       .  A
C1750      N2021   1.353       .  A
C1750      C1813   1.481       .  S
C1751      N2025   1.353       .  A
C1751      C1822   1.481       .  S
N1752      N1753   1.321       .  A
N1752     Mn1760   2.204       .  S
N1753      C1763   1.355       .  A
N1754      N1755   1.320       .  A
N1754     Mn1761   2.202       .  S
N1755      C1764   1.355       .  A
N1756      N1757   1.319       .  A
N1756     Mn1760   2.199       .  S
N1758      N1759   1.320       .  A
N1758     Mn1761   2.202       .  S
Mn1760    Cl1762   2.547       .  S
Cl1762    Mn2017   2.544       .  S
C1763      C1909   1.483       .  S
C1764      C1918   1.482       .  S
N1765      N1766   1.321       .  A
N1765      N2050   1.316       .  A
N1765     Mn1794   2.203       .  S
N1766      C1773   1.354       .  A
N1767      N2048   1.316   1_554  A
N1767      N1768   1.321       .  A
N1767     Mn1783   2.202       .  S
N1768      C2053   1.354   1_554  A
N1769      N2046   1.315       .  A
N1769      N1770   1.319       .  A
N1769     Mn1794   2.196       .  S
N1770      C1774   1.352       .  A
N1771      N2044   1.315   1_554  A
N1771      N1772   1.318       .  A
N1771     Mn1783   2.189       .  S
N1772      C2052   1.352   1_554  A
C1773      N2051   1.353       .  A
C1773      C1810   1.482       .  S
C1774      N2047   1.354       .  A
C1774      C1834   1.476       .  S
N1775      N1776   1.321       .  A
N1775     Mn1805   2.208       .  S
N1776      C1784   1.352       .  A
N1777      N1778   1.319       .  A
N1777     Mn1783   2.201       .  S
N1778      C1785   1.353   1_565  A
N1779      N1780   1.321       .  A
N1779     Mn1805   2.205       .  S
N1781      N1782   1.320       .  A
N1781     Mn1783   2.194       .  S
C1784      C1885   1.468       .  S
C1785      C1897   1.479   1_545  S
N1786      N1787   1.321       .  A
N1786     Mn1794   2.208       .  S
N1788      N1789   1.318       .  A
N1788     Mn1806   2.194       .  S
N1790      N1791   1.321       .  A
N1790     Mn1794   2.203       .  S
N1791      C1796   1.355   1_565  A
N1792      N1793   1.319       .  A
N1792     Mn1806   2.195       .  S
N1793      C1795   1.353       .  A
C1795      C1870   1.484       .  S
C1796      C1861   1.479       .  S
N1797      N1798   1.322       .  A
N1797      N2082   1.315   1_554  A
N1797     Mn1805   2.210       .  S
N1798      C2087   1.356   1_554  A
N1799      N1800   1.319       .  A
N1799      N2080   1.315       .  A
N1799     Mn1806   2.195       .  S
N1800      C1809   1.352       .  A
N1801      N2078   1.315   1_554  A
N1801      N1802   1.321       .  A
N1801     Mn1805   2.203       .  S
N1802      C2088   1.355   1_554  A
N1803      N2076   1.315       .  A
N1803      N1804   1.318       .  A
N1803     Mn1806   2.193       .  S
N1804      C1808   1.352       .  A
Mn1805    Cl2086   2.547   1_554  S
Mn1806    Cl1807   2.543       .  S
Cl1807    Mn2084   2.547       .  S
C1808      N2077   1.356       .  A
C1808      C1825   1.481       .  S
C1809      N2081   1.355       .  A
C1809      C1849   1.481       .  S
C1810      C1811   1.405       .  A
C1810      C2094   1.411       .  A
C1811      C1812   1.401       .  A
C1811      H1816   1.083       .  S
C1812      C1813   1.410       .  A
C1812      O1817   1.372       .  S
C1813      C2093   1.404       .  A
C1814      C2092   1.404   1_554  A
C1814      C1815   1.399       .  A
C1814      H1818   1.082       .  S
C1815      C2089   1.410       .  A
C1815      O1819   1.373       .  S
O1817      H1821   0.991       .  S
O1819      H1820   0.985       .  S
C1822      C1823   1.403       .  A
C1822      C2106   1.411       .  A
C1823      C1824   1.397       .  A
C1823      H1828   1.083       .  S
C1824      C1825   1.411       .  A
C1824      O1829   1.372       .  S
C1825      C2105   1.405       .  A
C1826      C2104   1.405   1_554  A
C1826      C1827   1.402       .  A
C1826      H1830   1.083       .  S
C1827      C2101   1.411   1_554  A
C1827      O1831   1.371       .  S
O1829      H1833   0.991       .  S
O1831      H1832   0.991       .  S
C1834      C1835   1.404       .  A
C1834      C1839   1.410       .  A
C1835      C1836   1.400       .  A
C1835      H1840   1.084       .  S
C1836      C1837   1.408       .  A
C1836      O1841   1.371       .  S
C1837      C1838   1.402       .  A
C1838      C1839   1.398       .  A
C1838      H1842   1.084       .  S
C1839      O1843   1.372       .  S
O1841      H2124   0.991       .  S
O1843      H1844   0.993       .  S
H1845      O2120   0.991       .  S
C1846      C1847   1.404       .  A
C1846      C2130   1.410       .  A
C1847      C1848   1.399       .  A
C1847      H1852   1.083       .  S
C1848      C1849   1.411       .  A
C1848      O1853   1.372       .  S
C1849      C2129   1.404       .  A
C1850      C2128   1.404   1_554  A
C1850      C1851   1.401       .  A
C1850      H1854   1.083       .  S
C1851      C2125   1.410   1_554  A
C1851      O1855   1.371       .  S
O1853      H1857   0.992       .  S
O1855      H1856   0.992       .  S
C1858      C1863   1.410   1_545  A
C1859      C1860   1.397       .  A
C1859      H1864   1.083       .  S
C1860      O1865   1.372       .  S
C1861      C1862   1.404   1_545  A
C1862      C1863   1.401       .  A
C1862      H1866   1.084       .  S
C1863      O1867   1.371       .  S
O1865      H1869   0.991       .  S
O1867      H1868   0.991       .  S
C1870      C1875   1.412       .  A
C1871      C1872   1.401       .  A
C1871      H1876   1.083       .  S
C1872      C1873   1.411   1_565  A
C1872      O1877   1.372       .  S
C1874      C1875   1.399       .  A
C1874      H1878   1.083       .  S
C1875      O1879   1.371       .  S
O1877      H1881   0.992       .  S
O1879      H1880   0.992       .  S
C1882      C1883   1.402       .  A
C1882      C1887   1.406       .  A
C1883      C1884   1.403       .  A
C1883      H1888   1.084       .  S
C1884      C1885   1.406       .  A
C1884      O1889   1.371       .  S
C1885      C1886   1.401       .  A
C1886      C1887   1.399       .  A
C1886      H1890   1.084       .  S
C1887      O1891   1.372       .  S
O1889      H1893   0.993       .  S
O1891      H1892   0.991       .  S
C1894      C1899   1.409       .  A
C1895      C1896   1.398       .  A
C1895      H1900   1.084       .  S
C1896      C1897   1.410       .  A
C1896      O1901   1.372       .  S
C1898      C1899   1.402       .  A
C1898      H1902   1.084       .  S
C1899      O1903   1.372       .  S
O1901      H1905   0.993       .  S
O1903      H1904   0.991       .  S
C1906      C1907   1.404       .  A
C1907      C1908   1.399       .  A
C1907      H1912   1.083       .  S
C1908      O1913   1.372       .  S
C1909      C1910   1.405       .  A
C1910      C1911   1.401       .  A
C1910      H1914   1.083       .  S
C1911      O1915   1.371       .  S
O1913      H1917   0.991       .  S
O1915      H1916   0.991       .  S
C1918      C1919   1.404       .  A
C1919      C1920   1.399       .  A
C1919      H1924   1.083       .  S
C1920      C1921   1.412       .  A
C1920      O1925   1.371       .  S
C1922      C1923   1.400       .  A
C1922      H1926   1.083       .  S
C1923      O1927   1.372       .  S
O1925      H1929   0.992       .  S
O1927      H1928   0.992       .  S
C1930      C1931   1.405       .  A
C1931      C1932   1.401       .  A
C1931      H1936   1.083       .  S
C1932      O1937   1.371       .  S
C1933      C1934   1.404       .  A
C1934      C1935   1.398       .  A
C1934      H1938   1.083       .  S
C1935      O1939   1.371       .  S
O1937      H1941   0.991       .  S
O1939      H1940   0.992       .  S
C1942      C1947   1.411       .  A
C1943      C1944   1.398       .  A
C1943      H1948   1.083       .  S
C1944      O1949   1.371       .  S
C1945      C1946   1.405       .  A
C1946      C1947   1.400       .  A
C1946      H1950   1.083       .  S
C1947      O1951   1.371       .  S
O1949      H1953   0.992       .  S
O1951      H1952   0.992       .  S
N1954      N1955   1.321       .  A
N1954     Mn1983   2.206       .  S
N1956      N1957   1.320       .  A
N1956     Mn1972   2.205       .  S
N1958      N1959   1.320       .  A
N1958     Mn1983   2.199       .  S
N1959      C1963   1.353   1_565  A
N1960      N1961   1.321       .  A
N1960     Mn1972   2.202       .  S
N1961      C1962   1.351       .  A
C1962      C2161   1.468       .  S
C1963      C2152   1.484       .  S
N1964      N1965   1.320       .  A
N1964     Mn1994   2.202       .  S
N1965      C1973   1.354       .  A
N1966      N1967   1.321       .  A
N1966     Mn1972   2.204       .  S
N1967      C1974   1.355       .  A
N1968      N1969   1.319       .  A
N1968     Mn1994   2.196       .  S
N1970      N1971   1.321       .  A
N1970     Mn1972   2.204       .  S
Mn1972    Cl1996   2.544       .  S
C1973      C2185   1.483       .  S
C1974      C2224   1.483       .  S
N1975      N1976   1.321       .  A
N1975     Mn1983   2.206       .  S
N1977      N1978   1.319       .  A
N1977     Mn1995   2.197       .  S
N1979      N1980   1.321       .  A
N1979     Mn1983   2.206       .  S
N1980      C1985   1.355       .  A
N1981      N1982   1.319       .  A
N1981     Mn1995   2.193       .  S
N1982      C1984   1.352       .  A
C1984      C2200   1.483       .  S
C1985      C2209   1.482       .  S
N1986      N1987   1.321       .  A
N1986     Mn1994   2.203       .  S
N1987      C1997   1.354       .  A
N1988      N1989   1.320       .  A
N1988     Mn1995   2.197       .  S
N1989      C1998   1.353   1_565  A
N1990      N1991   1.319       .  A
N1990     Mn1994   2.200       .  S
N1992      N1993   1.319       .  A
N1992     Mn1995   2.198       .  S
C1997      C2173   1.478       .  S
C1998      C2137   1.479       .  S
N1999      N2000   1.319       .  A
N1999     Mn2028   2.199       .  S
N2001      N2002   1.321       .  A
N2001     Mn2017   2.202       .  S
N2003      N2004   1.319       .  A
N2003     Mn2028   2.200       .  S
N2004      C2008   1.354       .  A
N2005      N2006   1.320       .  A
N2005     Mn2017   2.200       .  S
N2006      C2007   1.354       .  A
C2007      C2221   1.483       .  S
C2008      C2212   1.482       .  S
N2009      N2010   1.319       .  A
N2009     Mn2039   2.198       .  S
N2010      C2018   1.353       .  A
N2011      N2012   1.320       .  A
N2011     Mn2017   2.203       .  S
N2013      N2014   1.320       .  A
N2013     Mn2039   2.198       .  S
N2014      C2019   1.354       .  A
N2015      N2016   1.320       .  A
N2015     Mn2017   2.201       .  S
C2018      C2116   1.476       .  S
C2019      C2125   1.481       .  S
N2020      N2021   1.320       .  A
N2020     Mn2028   2.202       .  S
N2022      N2023   1.319       .  A
N2022     Mn2040   2.203       .  S
N2023      C2030   1.354       .  A
N2024      N2025   1.321       .  A
N2024     Mn2028   2.200       .  S
N2026      N2027   1.323       .  A
N2026     Mn2040   2.208       .  S
N2027      C2029   1.356       .  A
C2029      C2092   1.493       .  S
C2030      C2101   1.481       .  S
N2031      N2032   1.321       .  A
N2031     Mn2039   2.204       .  S
N2032      C2042   1.355       .  A
N2033      N2034   1.320       .  A
N2033     Mn2040   2.201       .  S
N2034      C2043   1.355       .  A
N2035      N2036   1.319       .  A
N2035     Mn2039   2.199       .  S
N2037      N2038   1.320       .  A
N2037     Mn2040   2.203       .  S
Mn2039    Cl2041   2.547       .  S
C2042      C2188   1.483       .  S
C2043      C2197   1.482       .  S
N2044      N2045   1.320       .  A
N2044     Mn2073   2.190       .  S
N2045      C2052   1.353       .  A
N2046      N2047   1.321       .  A
N2046     Mn2062   2.203       .  S
N2048      N2049   1.318       .  A
N2048     Mn2073   2.195       .  S
N2049      C2053   1.352       .  A
N2050      N2051   1.320       .  A
N2050     Mn2062   2.204       .  S
C2052      C2089   1.482   1_556  S
C2053      C2113   1.476       .  S
N2054      N2055   1.321       .  A
N2054     Mn2084   2.207       .  S
N2055      C2063   1.352       .  A
N2056      N2057   1.319       .  A
N2056     Mn2062   2.199       .  S
N2057      C2064   1.353   1_565  A
N2058      N2059   1.321       .  A
N2058     Mn2084   2.205       .  S
N2060      N2061   1.320       .  A
N2060     Mn2062   2.200       .  S
C2063      C2164   1.468       .  S
C2064      C2176   1.479   1_545  S
N2065      N2066   1.321       .  A
N2065     Mn2073   2.201       .  S
N2067      N2068   1.318       .  A
N2067     Mn2085   2.194       .  S
N2069      N2070   1.322       .  A
N2069     Mn2073   2.204       .  S
N2070      C2075   1.355   1_565  A
N2071      N2072   1.319       .  A
N2071     Mn2085   2.195       .  S
N2072      C2074   1.353       .  A
C2074      C2149   1.484       .  S
C2075      C2140   1.480       .  S
N2076      N2077   1.322       .  A
N2076     Mn2084   2.210       .  S
N2078      N2079   1.319       .  A
N2078     Mn2085   2.195       .  S
N2079      C2088   1.352       .  A
N2080      N2081   1.321       .  A
N2080     Mn2084   2.203       .  S
N2082      N2083   1.318       .  A
N2082     Mn2085   2.193       .  S
N2083      C2087   1.352       .  A
Mn2085    Cl2086   2.543       .  S
C2087      C2104   1.481       .  S
C2088      C2128   1.481       .  S
C2089      C2090   1.405   1_554  A
C2090      C2091   1.405       .  A
C2090      H2095   1.086       .  S
C2091      C2092   1.411       .  A
C2091      O2096   1.369       .  S
C2093      C2094   1.399       .  A
C2093      H2097   1.083       .  S
C2094      O2098   1.372       .  S
O2096      H2100   0.993       .  S
O2098      H2099   0.991       .  S
C2101      C2102   1.403       .  A
C2102      C2103   1.397       .  A
C2102      H2107   1.083       .  S
C2103      C2104   1.411       .  A
C2103      O2108   1.372       .  S
C2105      C2106   1.402       .  A
C2105      H2109   1.083       .  S
C2106      O2110   1.371       .  S
O2108      H2112   0.991       .  S
O2110      H2111   0.991       .  S
C2113      C2114   1.404   1_556  A
C2113      C2118   1.410       .  A
C2114      C2115   1.400       .  A
C2114      H2119   1.084       .  S
C2115      C2116   1.409   1_554  A
C2115      O2120   1.371       .  S
C2116      C2117   1.402       .  A
C2117      C2118   1.398       .  A
C2117      H2121   1.084       .  S
C2118      O2122   1.372       .  S
O2122      H2123   0.993       .  S
C2125      C2126   1.404       .  A
C2126      C2127   1.399       .  A
C2126      H2131   1.083       .  S
C2127      C2128   1.411       .  A
C2127      O2132   1.372       .  S
C2129      C2130   1.401       .  A
C2129      H2133   1.083       .  S
C2130      O2134   1.371       .  S
O2132      H2136   0.992       .  S
O2134      H2135   0.992       .  S
C2137      C2142   1.410   1_545  A
C2138      C2139   1.397       .  A
C2138      H2143   1.083       .  S
C2139      O2144   1.372       .  S
C2140      C2141   1.404   1_545  A
C2141      C2142   1.401       .  A
C2141      H2145   1.084       .  S
C2142      O2146   1.371       .  S
O2144      H2148   0.991       .  S
O2146      H2147   0.991       .  S
C2149      C2154   1.412       .  A
C2150      C2151   1.401       .  A
C2150      H2155   1.083       .  S
C2151      C2152   1.411   1_565  A
C2151      O2156   1.372       .  S
C2153      C2154   1.399       .  A
C2153      H2157   1.083       .  S
C2154      O2158   1.371       .  S
O2156      H2160   0.992       .  S
O2158      H2159   0.992       .  S
C2161      C2162   1.402       .  A
C2161      C2166   1.406       .  A
C2162      C2163   1.403       .  A
C2162      H2167   1.084       .  S
C2163      C2164   1.406       .  A
C2163      O2168   1.371       .  S
C2164      C2165   1.401       .  A
C2165      C2166   1.399       .  A
C2165      H2169   1.084       .  S
C2166      O2170   1.372       .  S
O2168      H2172   0.993       .  S
O2170      H2171   0.991       .  S
C2173      C2178   1.409       .  A
C2174      C2175   1.398       .  A
C2174      H2179   1.084       .  S
C2175      C2176   1.410       .  A
C2175      O2180   1.372       .  S
C2177      C2178   1.402       .  A
C2177      H2181   1.084       .  S
C2178      O2182   1.372       .  S
O2180      H2184   0.993       .  S
O2182      H2183   0.991       .  S
C2185      C2186   1.404       .  A
C2186      C2187   1.399       .  A
C2186      H2191   1.083       .  S
C2187      O2192   1.372       .  S
C2188      C2189   1.405       .  A
C2189      C2190   1.401       .  A
C2189      H2193   1.083       .  S
C2190      O2194   1.371       .  S
O2192      H2196   0.991       .  S
O2194      H2195   0.991       .  S
C2197      C2198   1.404       .  A
C2198      C2199   1.399       .  A
C2198      H2203   1.083       .  S
C2199      C2200   1.412       .  A
C2199      O2204   1.371       .  S
C2201      C2202   1.400       .  A
C2201      H2205   1.083       .  S
C2202      O2206   1.372       .  S
O2204      H2208   0.992       .  S
O2206      H2207   0.992       .  S
C2209      C2210   1.405       .  A
C2210      C2211   1.401       .  A
C2210      H2215   1.083       .  S
C2211      O2216   1.371       .  S
C2212      C2213   1.404       .  A
C2213      C2214   1.398       .  A
C2213      H2217   1.083       .  S
C2214      O2218   1.371       .  S
O2216      H2220   0.991       .  S
O2218      H2219   0.992       .  S
C2221      C2226   1.411       .  A
C2222      C2223   1.398       .  A
C2222      H2227   1.083       .  S
C2223      O2228   1.371       .  S
C2224      C2225   1.405       .  A
C2225      C2226   1.400       .  A
C2225      H2229   1.083       .  S
C2226      O2230   1.371       .  S
O2228      H2232   0.992       .  S
O2230      H2231   0.992       .  S
