geometry optimzed in LAMMPS
_audit_creation_date              2020-12-01 
_audit_creation_method            'lammps2cif' 
_symmetry_space_group_name_H-M    'P1' 
_symmetry_Int_Tables_number       1 
_symmetry_cell_setting            triclinic 
loop_ 
_symmetry_equiv_pos_as_xyz 
  x,y,z 
_cell_length_a                    47.36387363 
_cell_length_b                    33.66398596730834 
_cell_length_c                    34.13247605468951 
_cell_angle_alpha                 90.84240961131557 
_cell_angle_beta                  90.05482522125013 
_cell_angle_gamma                 90.01359253764039 
loop_ 
_atom_site_label 
_atom_site_type_symbol 
_atom_site_fract_x 
_atom_site_fract_y 
_atom_site_fract_z 
_atom_site_charge 
O1          O  0.17042032  0.26733853  0.01648101    -0.88600
C2          C  0.09551561  0.29490765  0.06538002     0.87400
Mg3        Mg  0.18105754  0.28255243  0.95766081     1.58100
O4          O  0.10657416  0.19498772  0.04119173    -0.88300
O5          O  0.17021530  0.21619777  0.05526049    -0.75700
C6          C  0.06996433  0.22402777  0.85187131     0.92500
O7          O  0.13037505  0.34110480  0.00007508    -0.75500
O8          O  0.08935577  0.25030621  0.85033243    -0.83000
Mg9        Mg  0.15392497  0.31428299  0.05263072     1.58000
C10         C  0.04809789  0.12841035  0.98498688     0.92400
O11         O  0.17837083  0.29349017  0.10688636    -0.81200
H12         H  0.13046301  0.14619060  0.04437084    -0.06600
C13         C  0.06244726  0.25831900  0.95950248     0.87300
O14         O  0.17117799  0.21950412  0.93590584    -0.75800
O15         O  0.11876021  0.27810764  0.06577891    -0.88500
O16         O  0.05123498  0.15092222  0.01494271    -0.81300
C17         C  0.06268166  0.21098699  0.12693046     0.92500
C18         C  0.17550481  0.27229100  0.13724580     0.92400
Mg19       Mg  0.09163850  0.18164936  0.93671897     1.58000
O20         O  0.06732022  0.20127057  0.88128250    -0.81200
O21         O  0.11578117  0.15700174  0.98970471    -0.75500
O22         O  0.08852991  0.22169235  0.12920677    -0.81300
O23         O  0.19012256  0.35445276  0.03966415    -0.83000
O24         O  0.15603326  0.27640408  0.86028497    -0.81400
C25         C  0.11779440  0.16521439  0.02613676     0.86800
O26         O  0.12587122  0.21939244  0.92322915    -0.88500
O27         O  0.07414207  0.22838999  0.97242661    -0.88600
O28         O  0.07450398  0.28059089  0.93487771    -0.75700
Mg29       Mg  0.12866070  0.22108549  0.08984816     1.58000
O30         O  0.05144400  0.20175191  0.09415822    -0.83000
H31         H  0.20258323  0.22895130  0.01856977    -0.06800
O32         O  0.13855807  0.30270659  0.94864880    -0.88300
H33         H  0.11599588  0.35275534  0.94539607    -0.06600
H34         H  0.15050266  0.17249799  0.91158460    -0.06800
C35         C  0.12810799  0.33304569  0.96364351     0.86800
C36         C  0.18207147  0.23753485  0.02967633     0.87400
C37         C  0.14913572  0.20276722  0.92244150     0.87400
H38         H  0.04176707  0.26641270  0.97036015    -0.06700
O39         O  0.07353003  0.27789670  0.05193393    -0.75800
Mg40       Mg  0.11597661  0.27672235  0.90014730     1.58000
H41         H  0.09412571  0.32551789  0.07522171    -0.06800
C42         C  0.20001500  0.36517091  0.00702211     0.92400
O43         O  0.19315499  0.29609042  0.89560280    -0.83000
C44         C  0.18185214  0.28737516  0.86278538     0.92500
O45         O  0.15503463  0.24781437  0.14019569    -0.83000
Mg46       Mg  0.06395366  0.21415893  0.03166937     1.58200
O47         O  0.19571013  0.34494450  0.97576638    -0.81300
O48         O  0.05677276  0.13844707  0.95128707    -0.83000
O49         O  0.42521932  0.76410344  0.02784502    -0.88600
C50         C  0.34832372  0.79124127  0.07152768     0.87400
Mg51       Mg  0.43750275  0.77957968  0.96996556     1.58100
O52         O  0.35821745  0.69040307  0.04910416    -0.88300
O53         O  0.42172529  0.71145700  0.06475449    -0.75700
C54         C  0.32989076  0.72027153  0.85963198     0.92500
O55         O  0.38516012  0.83775154  0.00873425    -0.75500
O56         O  0.35030997  0.74487012  0.85839123    -0.83000
Mg57       Mg  0.40709759  0.81096485  0.06246055     1.58000
C58         C  0.30100461  0.62630567  0.98782103     0.92400
O59         O  0.42968601  0.78916220  0.11755789    -0.81200
H60         H  0.38042736  0.64042360  0.05557856    -0.06600
C61         C  0.31865922  0.75485189  0.96525679     0.87300
O62         O  0.42878773  0.71590218  0.94838830    -0.75800
O63         O  0.37143848  0.77419293  0.07240866    -0.88500
O64         O  0.30232129  0.64791883  0.01874919    -0.81300
C65         C  0.31239666  0.71053069  0.13230092     0.92500
C66         C  0.42525294  0.76705260  0.14691885     0.92400
Mg67       Mg  0.34836801  0.67785924  0.94504623     1.58000
O68         O  0.32604208  0.69822706  0.88914618    -0.81200
O69         O  0.36964030  0.65159256  0.99928479    -0.75500
O70         O  0.33828577  0.72093780  0.13490480    -0.81300
O71         O  0.44360630  0.85275154  0.05191097    -0.83000
O72         O  0.41590347  0.77024718  0.87231211    -0.81400
C73         C  0.36945270  0.65986616  0.03575519     0.86800
O74         O  0.38361563  0.71507564  0.93468090    -0.88500
O75         O  0.32927073  0.72458634  0.97915899    -0.88600
O76         O  0.33200733  0.77650114  0.94134947    -0.75700
Mg77       Mg  0.37937672  0.71739018  0.09754388     1.58000
O78         O  0.30180850  0.69926690  0.09961147    -0.83000
H79         H  0.45585323  0.72338098  0.03095476    -0.06800
O80         O  0.39522170  0.79850563  0.95870815    -0.88300
H81         H  0.37267300  0.84830288  0.95294688    -0.06600
H82         H  0.40855634  0.66804913  0.92486596    -0.06800
C83         C  0.38417123  0.82903158  0.97236223     0.86800
C84         C  0.43527207  0.73302883  0.04091822     0.87400
C85         C  0.40693145  0.69853923  0.93500593     0.87400
H86         H  0.29775849  0.76375385  0.97457101    -0.06700
O87         O  0.32634136  0.77425847  0.05807356    -0.75800
Mg88       Mg  0.37466811  0.77169341  0.90949845     1.58000
H89         H  0.34700883  0.82190721  0.08120072    -0.06800
C90         C  0.45325973  0.86374653  0.01911055     0.92400
O91         O  0.45133166  0.79353564  0.90889251    -0.83000
C92         C  0.44121489  0.78297142  0.87590646     0.92500
O93         O  0.40416974  0.74367786  0.14820751    -0.83000
Mg94       Mg  0.31628640  0.71075106  0.03733162     1.58200
O95         O  0.44999411  0.84292053  0.98802534    -0.81300
O96         O  0.31264402  0.63615599  0.95593589    -0.83000
O97         O  0.42109509  0.22965242  0.47334442    -0.88600
C98         C  0.34470363  0.21018137  0.42342082     0.87400
Mg99       Mg  0.43058064  0.21329674  0.53213565     1.58100
O100        O  0.35829584  0.30912340  0.44978224    -0.88300
O101        O  0.42132416  0.28286270  0.43683142    -0.75700
C102        C  0.31923799  0.27447470  0.63630964     0.92500
O103        O  0.37724762  0.15901316  0.48838911    -0.75500
O104        O  0.33899322  0.24883845  0.63804588    -0.83000
Mg105      Mg  0.40203768  0.18447497  0.43675450     1.58000
C106        C  0.30073836  0.37707045  0.50940607     0.92400
O107        O  0.42788162  0.20468816  0.38318287    -0.81200
H108        H  0.38339031  0.35685574  0.44808811    -0.06600
C109        C  0.31272786  0.24460850  0.52766615     0.87300
O110        O  0.42221819  0.27671549  0.55449923    -0.75800
O111        O  0.36864620  0.22481400  0.42504394    -0.88500
O112        O  0.30313979  0.35691798  0.47760614    -0.81300
C113        C  0.31400359  0.29379417  0.36370598     0.92500
C114        C  0.42546393  0.22743982  0.35376475     0.92400
Mg115      Mg  0.34331431  0.31925761  0.55415862     1.58000
O116        O  0.31733752  0.29836691  0.60769294    -0.81200
O117        O  0.36833958  0.34506992  0.50236505    -0.75500
O118        O  0.33926731  0.28036531  0.36168104    -0.81300
O119        O  0.43530632  0.13825010  0.44976458    -0.83000
O120        O  0.40512536  0.22127613  0.62871188    -0.81400
C121        C  0.37024858  0.33788283  0.46570809     0.86800
O122        O  0.37675260  0.27947135  0.56606750    -0.88500
O123        O  0.32448421  0.27525721  0.51644528    -0.88600
O124        O  0.32437386  0.22132125  0.55184801    -0.75700
Mg125      Mg  0.37983709  0.28098605  0.40144473     1.58000
O126        O  0.30423547  0.30848077  0.39548249    -0.83000
H127        H  0.45369543  0.26742469  0.47255319    -0.06800
O128        O  0.38746226  0.19600988  0.54005857    -0.88300
H129        H  0.36298099  0.14778311  0.54312367    -0.06600
H130        H  0.40267708  0.32481883  0.57851400    -0.06800
C131        C  0.37575121  0.16667794  0.52491937     0.86800
C132        C  0.43303109  0.25982736  0.46122660     0.87400
C133        C  0.40050778  0.29472144  0.56742756     0.87400
H134        H  0.29227559  0.23683800  0.51572823    -0.06700
O135        O  0.32306136  0.22912064  0.43534852    -0.75800
Mg136      Mg  0.36536272  0.22258063  0.58818907     1.58000
H137        H  0.34222692  0.18003365  0.41261114    -0.06800
C138        C  0.44535050  0.12830524  0.48275844     0.92400
O139        O  0.44157569  0.19812964  0.59431593    -0.83000
C140        C  0.43057690  0.20871469  0.62683542     0.92500
O141        O  0.40550627  0.25275791  0.35184182    -0.83000
Mg142      Mg  0.31507513  0.29292546  0.45783904     1.58200
O143        O  0.44323243  0.15043568  0.51315723    -0.81300
O144        O  0.30987063  0.36441348  0.54189791    -0.83000
O145        O  0.17421795  0.73881333  0.48094233    -0.88600
C146        C  0.09842938  0.70414761  0.43710029     0.87400
Mg147      Mg  0.18767318  0.72760665  0.53953143     1.58100
O148        O  0.10599354  0.80588261  0.45800089    -0.88300
O149        O  0.16999467  0.78848624  0.44072609    -0.75700
C150        C  0.07841423  0.77993153  0.64981310     0.92500
O151        O  0.13747683  0.66287903  0.50302274    -0.75500
O152        O  0.09985035  0.75712746  0.65120343    -0.83000
Mg153      Mg  0.15821826  0.68874121  0.44800665     1.58000
C154        C  0.04604813  0.86857808  0.51641803     0.92400
O155        O  0.17967898  0.70930364  0.39072895    -0.81200
H156        H  0.12649793  0.85721516  0.45093639    -0.06600
C157        C  0.06826325  0.74127918  0.54391864     0.87300
O158        O  0.17589942  0.79064176  0.55949175    -0.75800
O159        O  0.12109476  0.72237010  0.43579929    -0.88500
O160        O  0.04953377  0.84587434  0.48671546    -0.81300
C161        C  0.06036351  0.78416033  0.37562095     0.92500
C162        C  0.17430312  0.72959178  0.36022876     0.92400
Mg163      Mg  0.09414289  0.82122786  0.56238980     1.58000
O164        O  0.07297491  0.80044387  0.61951466    -0.81200
O165        O  0.11475921  0.84711531  0.50710212    -0.75500
O166        O  0.08630908  0.77425147  0.37242062    -0.81300
O167        O  0.19650258  0.65024288  0.46149993    -0.83000
O168        O  0.16602522  0.73402197  0.63775239    -0.81400
C169        C  0.11587344  0.83756157  0.47089667     0.86800
O170        O  0.13106133  0.78740525  0.57432986    -0.88500
O171        O  0.07776449  0.77179706  0.52912255    -0.88600
O172        O  0.08229723  0.72167583  0.56880735    -0.75700
Mg173      Mg  0.12753309  0.77913817  0.40928767     1.58000
O174        O  0.04975507  0.79401918  0.40858223    -0.83000
H175        H  0.20441831  0.77978191  0.47500117    -0.06800
O176        O  0.14646667  0.70417063  0.55193857    -0.88300
H177        H  0.12592735  0.65292281  0.55926254    -0.06600
H178        H  0.15380571  0.83680811  0.58288647    -0.06800
C179        C  0.13655149  0.67246820  0.53919500     0.86800
C180        C  0.18389496  0.76905584  0.46585916     0.87400
C181        C  0.15351186  0.80606586  0.57327743     0.87400
H182        H  0.04776766  0.73046734  0.53474358    -0.06700
O183        O  0.07610065  0.72017764  0.45056653    -0.75800
Mg184      Mg  0.12480363  0.73043244  0.60053758     1.58000
H185        H  0.09783729  0.67331827  0.42780880    -0.06800
C186        C  0.20803076  0.64366135  0.49450820     0.92400
O187        O  0.20270815  0.71662841  0.60066053    -0.83000
C188        C  0.19197994  0.72433906  0.63397878     0.92500
O189        O  0.15262606  0.75195119  0.35869296    -0.83000
Mg190      Mg  0.06463608  0.78358362  0.47038010     1.58200
O191        O  0.20429149  0.66669940  0.52373914    -0.81300
O192        O  0.05614308  0.86021874  0.54985235    -0.83000
C193        C  0.03048224  0.90619217  0.51141685    -0.20100
C194        C  0.03268626  0.92781571  0.47629287     0.36100
C195        C  0.01826774  0.96396621  0.47292599    -0.26100
C196        C  0.00182528  0.97888020  0.50377125     0.02500
C197        C  0.99911385  0.95721785  0.53856512     0.27300
C198        C  0.01377742  0.92116542  0.54222928    -0.25200
N199        N  0.05000378  0.91348497  0.44449736    -0.82600
H200        H  0.02004206  0.98088856  0.44626486     0.13100
C201        C  0.48746214  0.01726421  0.49876750     0.02500
N202        N  0.48090796  0.97132958  0.56945319    -0.81200
H203        H  0.01188287  0.90443361  0.56897950     0.18000
C204        C  0.46160938  0.01811951  0.47883376    -0.26000
C205        C  0.44761769  0.05424875  0.47248521     0.36000
C206        C  0.45988794  0.08993527  0.48651789    -0.20000
C207        C  0.48585281  0.08894869  0.50624181    -0.25300
C208        C  0.00002421  0.05292426  0.51199028     0.27400
H209        H  0.45235763  0.99048940  0.46835479     0.13100
N210        N  0.42082503  0.05476425  0.45265621    -0.82600
H211        H  0.99522263  0.11647826  0.51675238     0.18000
N212        N  0.02747677  0.05250800  0.53002328    -0.81200
H213        H  0.41490259  0.02600674  0.44404222     0.33600
H214        H  0.40566220  0.06463957  0.47279981     0.38100
H215        H  0.03404152  0.08142405  0.53697545     0.33600
H216        H  0.02583608  0.03761625  0.55654348     0.30300
H217        H  0.48071072  0.95132664  0.59259573     0.33600
H218        H  0.48931402  0.99782682  0.58067755     0.30300
H219        H  0.07097032  0.91387065  0.45411842     0.38100
H220        H  0.04892959  0.93263918  0.42070146     0.33600
C221        C  0.28846627  0.41737918  0.50874878    -0.20100
C222        C  0.26552674  0.42694109  0.48431876     0.36100
C223        C  0.25583702  0.46631737  0.48349326    -0.26100
C224        C  0.26852810  0.49618563  0.50662734     0.02500
C225        C  0.29109185  0.48655700  0.53163305     0.27300
C226        C  0.30074426  0.44715782  0.53256841    -0.25200
N227        N  0.25186097  0.39661864  0.46106041    -0.82600
H228        H  0.23805144  0.47378562  0.46500672     0.13100
C229        C  0.25705927  0.53699821  0.50477198     0.02500
N230        N  0.30429324  0.51683301  0.55549648    -0.81200
H231        H  0.31844124  0.43983574  0.55127157     0.18000
C232        C  0.24527157  0.55451556  0.53843781    -0.26000
C233        C  0.22992452  0.59011140  0.53626228     0.36000
C234        C  0.22616618  0.60823336  0.49932972    -0.20000
C235        C  0.23955528  0.59179312  0.46623053    -0.25300
C236        C  0.25535746  0.55671420  0.46874612     0.27400
H237        H  0.24688747  0.53935169  0.56613999     0.13100
N238        N  0.21737611  0.60689554  0.57113689    -0.82600
H239        H  0.23757084  0.60625370  0.43821033     0.18000
N240        N  0.26941911  0.54058279  0.43477755    -0.81200
H241        H  0.22298884  0.59056580  0.59577501     0.33600
H242        H  0.19546835  0.60429199  0.56831291     0.38100
H243        H  0.26608466  0.55861918  0.41052767     0.33600
H244        H  0.29111327  0.54119697  0.44047454     0.30300
H245        H  0.32054175  0.50473871  0.57230803     0.33600
H246        H  0.31371914  0.53716440  0.53668996     0.30300
H247        H  0.24266340  0.37651932  0.48032375     0.38100
H248        H  0.23536263  0.40870825  0.44471200     0.33600
C249        C  0.45990468  0.78428063  0.84115463    -0.20100
C250        C  0.48003882  0.81494537  0.83639102     0.36100
C251        C  0.49825119  0.81371948  0.80393539    -0.26100
C252        C  0.49731353  0.78216845  0.77681593     0.02500
C253        C  0.47755658  0.75130611  0.78163526     0.27300
C254        C  0.45866624  0.75308245  0.81340540    -0.25200
N255        N  0.48162907  0.84761937  0.86394658    -0.82600
H256        H  0.51365915  0.83714547  0.80006454     0.13100
C257        C  0.01787082  0.78158252  0.74421417     0.02500
N258        N  0.97762740  0.71749615  0.75538729    -0.81200
H259        H  0.44362547  0.72921875  0.81738703     0.18000
C260        C  0.04541296  0.76821097  0.75115541    -0.26000
C261        C  0.06595268  0.76849460  0.72138167     0.36000
C262        C  0.05851065  0.78185327  0.68356211    -0.20000
C263        C  0.03096920  0.79616578  0.67723932    -0.25300
C264        C  0.01066329  0.79640215  0.70720208     0.27400
H265        H  0.05093019  0.75789825  0.78010396     0.13100
N266        N  0.09427963  0.75572080  0.72966502    -0.82600
H267        H  0.02505104  0.80684440  0.64859753     0.18000
N268        N  0.48302456  0.81268445  0.70052305    -0.81200
H269        H  0.09602867  0.74640285  0.75865603     0.33600
H270        H  0.10748934  0.78043855  0.72708035     0.38100
H271        H  0.48142168  0.82348230  0.67204081     0.33600
H272        H  0.46829907  0.78973386  0.70253939     0.30300
H273        H  0.96239108  0.69683483  0.76381504     0.33600
H274        H  0.97176632  0.72703693  0.72758440     0.30300
H275        H  0.49075104  0.83699256  0.88963441     0.38100
H276        H  0.49542904  0.86943671  0.85383364     0.33600
C277        C  0.04146976  0.78328760  0.34062226    -0.20100
C278        C  0.05194370  0.78128015  0.30174963     0.36100
C279        C  0.03283205  0.77845012  0.27021440    -0.26100
C280        C  0.00362045  0.77805329  0.27661143     0.02500
C281        C  0.99305899  0.78104569  0.31500209     0.27300
C282        C  0.01201806  0.78356766  0.34655976    -0.25200
N283        N  0.08179567  0.78235300  0.29426361    -0.82600
H284        H  0.04069569  0.77656349  0.24043709     0.13100
C285        C  0.48413489  0.77502430  0.24283333     0.02500
N286        N  0.46308736  0.78142404  0.32169747    -0.81200
H287        H  0.00361867  0.78527022  0.37603910     0.18000
C288        C  0.46814918  0.74036803  0.23729014    -0.26000
C289        C  0.44895160  0.73672360  0.20602021     0.36000
C290        C  0.44535497  0.76890950  0.18023093    -0.20000
C291        C  0.46175271  0.80337938  0.18574194    -0.25300
C292        C  0.48097972  0.80681979  0.21690945     0.27400
H293        H  0.47089387  0.71597651  0.25731571     0.13100
N294        N  0.43357461  0.70028078  0.20007485    -0.82600
H295        H  0.45924016  0.82808112  0.16604249     0.18000
N296        N  0.49705702  0.84265221  0.22273035    -0.81200
H297        H  0.43840992  0.67997237  0.22197574     0.33600
H298        H  0.44049554  0.68752586  0.17366525     0.38100
H299        H  0.49239565  0.86316422  0.20094455     0.33600
H300        H  0.99063041  0.85556267  0.24932232     0.30300
H301        H  0.45871207  0.78357191  0.35167094     0.33600
H302        H  0.45496327  0.80711326  0.30903816     0.30300
H303        H  0.08911953  0.81042894  0.30296906     0.38100
H304        H  0.08585656  0.77963947  0.26423476     0.33600
C305        C  0.30954958  0.71838407  0.82647135    -0.20100
C306        C  0.29298015  0.68420155  0.81807492     0.36100
C307        C  0.27408579  0.68456954  0.78625931    -0.26100
C308        C  0.27065489  0.71860266  0.76361055     0.02500
C309        C  0.28673224  0.75281222  0.77222343     0.27300
C310        C  0.30613562  0.75226124  0.80331168    -0.25200
N311        N  0.29548789  0.64912352  0.84137601    -0.82600
H312        H  0.26145622  0.65848558  0.77956342     0.13100
C313        C  0.24984295  0.71836007  0.73119094     0.02500
N314        N  0.28323271  0.78797410  0.74930323    -0.81200
H315        H  0.31835368  0.77875615  0.80985619     0.18000
C316        C  0.22659123  0.74406610  0.73326517    -0.26000
C317        C  0.20687664  0.74595282  0.70252199     0.36000
C318        C  0.21063409  0.72157707  0.66885157    -0.20000
C319        C  0.23382078  0.69537749  0.66722879    -0.25300
C320        C  0.25349620  0.69363096  0.69797653     0.27400
H321        H  0.22397375  0.76297449  0.75897421     0.13100
N322        N  0.18388932  0.77375811  0.70478782    -0.82600
H323        H  0.23682688  0.67649187  0.64158002     0.18000
N324        N  0.27746809  0.66750947  0.69531175    -0.81200
H325        H  0.18565901  0.79167756  0.72995102     0.33600
H326        H  0.16530960  0.75740023  0.70812379     0.38100
H327        H  0.27704938  0.65124966  0.66897741     0.33600
H328        H  0.29561779  0.68517352  0.69458037     0.30300
H329        H  0.29638707  0.81075777  0.75967771     0.33600
H330        H  0.28981140  0.78120532  0.72074880     0.30300
H331        H  0.28601368  0.65529549  0.86843725     0.38100
H332        H  0.28381834  0.62575434  0.82896437     0.33600
C333        C  0.29354454  0.71241526  0.16759443    -0.20100
C334        C  0.30269378  0.72681395  0.20482271     0.36100
C335        C  0.28308109  0.73046286  0.23580527    -0.26100
C336        C  0.25474835  0.71899964  0.23102284     0.02500
C337        C  0.24583195  0.70356921  0.19447179     0.27300
C338        C  0.26509033  0.70090949  0.16325083    -0.25200
N339        N  0.33167516  0.73786781  0.21124890    -0.82600
H340        H  0.28994303  0.74217685  0.26398170     0.13100
C341        C  0.23457895  0.72243812  0.26452276     0.02500
N342        N  0.21721748  0.69017771  0.18931300    -0.81200
H343        H  0.25765514  0.68953788  0.13525113     0.18000
C344        C  0.20949987  0.74414994  0.26009550    -0.26000
C345        C  0.18929029  0.74677499  0.29030534     0.36000
C346        C  0.19435085  0.72736664  0.32630270    -0.20000
C347        C  0.21961198  0.70566836  0.33046436    -0.25300
C348        C  0.23958907  0.70284570  0.30006049     0.27400
H349        H  0.20569323  0.75923062  0.23276130     0.13100
N350        N  0.16364755  0.76866930  0.28404896    -0.82600
H351        H  0.22389536  0.69055529  0.35762369     0.18000
N352        N  0.26476675  0.67957375  0.30493121    -0.81200
H353        H  0.16231222  0.77809304  0.25504990     0.33600
H354        H  0.16471936  0.79451107  0.30134503     0.38100
H355        H  0.26535670  0.66709463  0.33279067     0.33600
H356        H  0.26386988  0.65588298  0.28481242     0.30300
H357        H  0.21392391  0.67974695  0.16067174     0.33600
H358        H  0.21419424  0.66594824  0.20766680     0.30300
H359        H  0.34373916  0.71189096  0.20952635     0.38100
H360        H  0.33451326  0.74929885  0.23963203     0.33600
C361        C  0.44887729  0.20768209  0.66256958    -0.20100
C362        C  0.44125036  0.22605002  0.69869759     0.36100
C363        C  0.46121804  0.22837802  0.72936497    -0.26100
C364        C  0.48842630  0.21239015  0.72502364     0.02500
C365        C  0.49577358  0.19308127  0.68963909     0.27300
C366        C  0.47596496  0.19062911  0.65909729    -0.25200
N367        N  0.41365441  0.24303772  0.70404517    -0.82600
H368        H  0.95551046  0.24257772  0.75693960     0.13100
C369        C  0.00915557  0.21588114  0.75767106     0.02500
N370        N  0.52363973  0.17686399  0.68451709    -0.81200
H371        H  0.48217778  0.17614504  0.63190619     0.18000
C372        C  0.01955423  0.18124530  0.77486407    -0.26000
C373        C  0.03945188  0.18301786  0.80548225     0.36000
C374        C  0.04944581  0.22039001  0.81899105    -0.20000
C375        C  0.03937775  0.25505438  0.80118250    -0.25300
C376        C  0.01926805  0.25318187  0.77075925     0.27400
H377        H  0.51199035  0.15262075  0.76438546     0.13100
N378        N  0.05021241  0.14691832  0.82183022    -0.82600
H379        H  0.04697957  0.28375288  0.81139807     0.18000
N380        N  0.00923707  0.28891999  0.75287186    -0.81200
H381        H  0.54288618  0.12222159  0.80591539     0.33600
H382        H  0.04178201  0.14436730  0.84995793     0.38100
H383        H  0.01864167  0.31390189  0.76594415     0.33600
H384        H  0.01575606  0.28830787  0.72360907     0.30300
H385        H  0.52569010  0.16343840  0.65684882     0.33600
H386        H  0.53792783  0.20054498  0.68542979     0.30300
H387        H  0.39913808  0.21963116  0.70397166     0.38100
H388        H  0.41203547  0.25689762  0.73156795     0.33600
C389        C  0.04465268  0.20958541  0.16286855    -0.20100
C390        C  0.05309394  0.22655829  0.19934237     0.36100
C391        C  0.03441533  0.22577307  0.23146055    -0.26100
C392        C  0.00729419  0.20953299  0.22774196     0.02500
C393        C  0.99894519  0.19203556  0.19191428     0.27300
C394        C  0.01767067  0.19201745  0.16001079    -0.25200
N395        N  0.08009586  0.24566619  0.20353906    -0.82600
H396        H  0.04054907  0.23943227  0.25912878     0.13100
C397        C  0.48691247  0.21398201  0.26046649     0.02500
N398        N  0.47124128  0.17495725  0.18797907    -0.81200
H399        H  0.01085834  0.17863843  0.13253759     0.18000
C400        C  0.46518040  0.24189757  0.25716022    -0.26000
C401        C  0.44524381  0.24764053  0.28722986     0.36000
C402        C  0.44660281  0.22395873  0.32126014    -0.20000
C403        C  0.46881043  0.19619926  0.32444142    -0.25300
C404        C  0.48891398  0.19101020  0.29442915     0.27400
H405        H  0.46402453  0.25970701  0.23100915     0.13100
N406        N  0.42380622  0.27751419  0.28306402    -0.82600
H407        H  0.47048205  0.17815536  0.35035097     0.18000
N408        N  0.01118250  0.16233077  0.29808873    -0.81200
H409        H  0.42494703  0.29053945  0.25548674     0.33600
H410        H  0.42821740  0.30016542  0.30345265     0.38100
H411        H  0.00984292  0.14798813  0.32498908     0.33600
H412        H  0.00811450  0.14052560  0.27636752     0.30300
H413        H  0.46817675  0.16360760  0.15961449     0.33600
H414        H  0.47010864  0.15081794  0.20684453     0.30300
H415        H  0.07966182  0.27129719  0.18660649     0.38100
H416        H  0.08329606  0.25524345  0.23248376     0.33600
C417        C  0.19973501  0.28879647  0.82688863    -0.20100
C418        C  0.22567096  0.30974203  0.82654025     0.36100
C419        C  0.24323632  0.30745445  0.79355373    -0.26100
C420        C  0.23557931  0.28487728  0.76046753     0.02500
C421        C  0.20936610  0.26497528  0.75989188     0.27300
C422        C  0.19169727  0.26710988  0.79309842    -0.25200
N423        N  0.23434730  0.33360015  0.85952267    -0.82600
H424        H  0.26325935  0.32306149  0.79398380     0.13100
C425        C  0.25571432  0.28195435  0.72717631     0.02500
N426        N  0.20090583  0.24258922  0.72567995    -0.81200
H427        H  0.17187931  0.25103351  0.79284475     0.18000
C428        C  0.26908415  0.24565297  0.71894074    -0.26000
C429        C  0.28982548  0.24239027  0.68951011     0.36000
C430        C  0.29754701  0.27639194  0.66796807    -0.20000
C431        C  0.28359791  0.31253406  0.67586007    -0.25300
C432        C  0.26283701  0.31563923  0.70525366     0.27400
H433        H  0.26349153  0.21984812  0.73589129     0.13100
N434        N  0.30272902  0.20454737  0.68116909    -0.82600
H435        H  0.28911320  0.33861683  0.65929342     0.18000
N436        N  0.24898113  0.35289389  0.71312450    -0.81200
H437        H  0.29498228  0.18285799  0.69995821     0.33600
H438        H  0.29664224  0.19585517  0.65286059     0.38100
H439        H  0.25664712  0.37487213  0.69460086     0.33600
H440        H  0.22758555  0.34923525  0.70640379     0.30300
H441        H  0.18109318  0.22965395  0.72996075     0.33600
H442        H  0.19857465  0.26259562  0.70275947     0.30300
H443        H  0.25381752  0.32296864  0.86931770     0.38100
H444        H  0.23725802  0.36272489  0.85008775     0.33600
C445        C  0.29478908  0.29090653  0.32895102    -0.20100
C446        C  0.26499383  0.29072248  0.33369131     0.36100
C447        C  0.24740544  0.28754068  0.30067486    -0.26100
C448        C  0.25852603  0.28321283  0.26292838     0.02500
C449        C  0.28809323  0.28263316  0.25783238     0.27300
C450        C  0.30595222  0.28660951  0.29087246    -0.25200
N451        N  0.25250884  0.29256275  0.37208093    -0.82600
H452        H  0.22468287  0.28779370  0.30441998     0.13100
C453        C  0.23849464  0.27903984  0.22945439     0.02500
N454        N  0.29980064  0.27755047  0.21925421    -0.81200
H455        H  0.32863823  0.28618299  0.28686977     0.18000
C456        C  0.23673709  0.30923289  0.20178880    -0.26000
C457        C  0.21608195  0.30830228  0.17204140     0.36000
C458        C  0.19692178  0.27586336  0.16940347    -0.20000
C459        C  0.19900105  0.24551716  0.19717061    -0.25300
C460        C  0.21957143  0.24674042  0.22699051     0.27400
H461        H  0.25103317  0.33429214  0.20419112     0.13100
N462        N  0.21429411  0.34063704  0.14509624    -0.82600
H463        H  0.18473667  0.22039904  0.19539330     0.18000
N464        N  0.22139178  0.21526530  0.25489251    -0.81200
H465        H  0.23024038  0.36146647  0.15060375     0.33600
H466        H  0.19516929  0.35528415  0.15032585     0.38100
H467        H  0.20595259  0.19372394  0.24924766     0.33600
H468        H  0.24093357  0.20132573  0.25097777     0.30300
H469        H  0.32185978  0.27769422  0.22046509     0.33600
H470        H  0.29385149  0.24939791  0.20885170     0.30300
H471        H  0.25775919  0.26626407  0.38630303     0.38100
H472        H  0.23047401  0.29314325  0.37027262     0.33600
C473        C  0.03426623  0.08940540  0.99017688    -0.20100
C474        C  0.03947289  0.05690128  0.96443928     0.36100
C475        C  0.02602667  0.02049833  0.97110582    -0.26100
C476        C  0.00785442  0.01573267  0.00304105     0.02500
C477        C  0.50302608  0.04770336  0.02917177     0.27300
C478        C  0.01639001  0.08418960  0.02260103    -0.25200
N479        N  0.05871141  0.06059635  0.93212275    -0.82600
H480        H  0.02981683  0.99550558  0.95142824     0.13100
C481        C  0.49344285  0.97721641  0.00782522     0.02500
N482        N  0.48419864  0.04316093  0.06182018    -0.81200
H483        H  0.51252059  0.10881863  0.04265870     0.18000
C484        C  0.49936914  0.95399741  0.04059397    -0.26000
C485        C  0.48648370  0.91673269  0.04527753     0.36000
C486        C  0.46759724  0.90251563  0.01622231    -0.20000
C487        C  0.46187385  0.92586460  0.98339729    -0.25300
C488        C  0.97431230  0.96332552  0.97917295     0.27400
H489        H  0.51426842  0.96490079  0.06234066     0.13100
N490        N  0.49344169  0.89273175  0.07842273    -0.82600
H491        H  0.44716809  0.91513779  0.96130570     0.18000
N492        N  0.96757963  0.98748172  0.94603632    -0.81200
H493        H  0.50938991  0.90621027  0.09513790     0.33600
H494        H  0.47569347  0.89184122  0.09654592     0.38100
H495        H  0.95320074  0.97289160  0.92755128     0.33600
H496        H  0.95743804  0.01305625  0.95661050     0.30300
H497        H  0.48306227  0.06950389  0.07836348     0.33600
H498        H  0.46397129  0.03801826  0.05054171     0.30300
H499        H  0.07889680  0.06511400  0.94380259     0.38100
H500        H  0.05963694  0.03413129  0.91574704     0.33600
C501        C  0.28605489  0.58812001  0.98922004    -0.20100
C502        C  0.29772421  0.55348622  0.97179413     0.36100
C503        C  0.28331051  0.51739085  0.97497197    -0.26100
C504        C  0.25766140  0.51529808  0.99507706     0.02500
C505        C  0.24611787  0.54963773  0.01289074     0.27300
C506        C  0.26055887  0.58583023  0.00991356    -0.25200
N507        N  0.32477845  0.55460759  0.95272066    -0.82600
H508        H  0.29221088  0.49058815  0.96204959     0.13100
C509        C  0.24348220  0.47655680  0.99782420     0.02500
N510        N  0.21988095  0.54749855  0.03391118    -0.81200
H511        H  0.25184124  0.61239451  0.02353404     0.18000
C512        C  0.24019592  0.45953298  0.03463767    -0.26000
C513        C  0.22649489  0.42294074  0.03872109     0.36000
C514        C  0.21614952  0.40277447  0.00484347    -0.20000
C515        C  0.22046488  0.41955627  0.96781790    -0.25300
C516        C  0.23381869  0.45640167  0.96401394     0.27400
H517        H  0.24819286  0.47513320  0.06034849     0.13100
N518        N  0.22343621  0.40634095  0.07706006    -0.82600
H519        H  0.21273870  0.40444577  0.94169292     0.18000
N520        N  0.23728865  0.47374795  0.92606540    -0.81200
H521        H  0.23502097  0.42275799  0.09776535     0.33600
H522        H  0.20228222  0.40958996  0.08519591     0.38100
H523        H  0.22918489  0.45495144  0.90413595     0.33600
H524        H  0.22523330  0.49975197  0.92557911     0.30300
H525        H  0.21444183  0.57536967  0.04552708     0.33600
H526        H  0.20410217  0.53976344  0.01375937     0.30300
H527        H  0.32214869  0.56932222  0.92622645     0.38100
H528        H  0.33150528  0.52589515  0.94525807     0.33600
O529        O  0.67042231  0.26734418  0.01648455    -0.88600
C530        C  0.59551509  0.29490428  0.06538130     0.87400
Mg531      Mg  0.68106131  0.28255870  0.95766762     1.58100
O532        O  0.60657348  0.19498749  0.04118539    -0.88300
O533        O  0.67021495  0.21619477  0.05525298    -0.75700
C534        C  0.56997898  0.22403012  0.85186592     0.92500
O535        O  0.63037262  0.34110459  0.00007917    -0.75500
O536        O  0.58936962  0.25030934  0.85033123    -0.83000
Mg537      Mg  0.65392280  0.31428392  0.05263478     1.58000
C538        C  0.54810140  0.12840954  0.98497838     0.92400
O539        O  0.67836858  0.29348940  0.10689005    -0.81200
H540        H  0.63045162  0.14618078  0.04437324    -0.06600
C541        C  0.56244943  0.25832095  0.95949655     0.87300
O542        O  0.67118349  0.21950787  0.93591614    -0.75800
O543        O  0.61875982  0.27810428  0.06578016    -0.88500
O544        O  0.55123850  0.15092210  0.01493380    -0.81300
C545        C  0.56268419  0.21097702  0.12692790     0.92500
C546        C  0.67550610  0.27228332  0.13724548     0.92400
Mg547      Mg  0.59164127  0.18164940  0.93671647     1.58000
O548        O  0.56733075  0.20127298  0.88127621    -0.81200
O549        O  0.61577683  0.15699367  0.98970381    -0.75500
O550        O  0.58853306  0.22167956  0.12920263    -0.81300
O551        O  0.69011703  0.35446032  0.03966913    -0.83000
O552        O  0.65604319  0.27639871  0.86029583    -0.81400
C553        C  0.61778877  0.16520823  0.02613535     0.86800
O554        O  0.62587684  0.21939241  0.92323603    -0.88500
O555        O  0.57414247  0.22839101  0.97242192    -0.88600
O556        O  0.57450883  0.28059303  0.93487431    -0.75700
Mg557      Mg  0.62866198  0.22107873  0.08984238     1.58000
O558        O  0.55144371  0.20174899  0.09415537    -0.83000
H559        H  0.70258429  0.22895530  0.01856750    -0.06800
O560        O  0.63856149  0.30270804  0.94865348    -0.88300
H561        H  0.61599613  0.35275384  0.94539858    -0.06600
H562        H  0.65050987  0.17249734  0.91160034    -0.06800
C563        C  0.62810853  0.33304566  0.96364726     0.86800
C564        C  0.68207251  0.23753754  0.02967494     0.87400
C565        C  0.64914182  0.20276794  0.92245311     0.87400
H566        H  0.54176846  0.26641526  0.97035086    -0.06700
O567        O  0.57352977  0.27789487  0.05193233    -0.75800
Mg568      Mg  0.61598451  0.27672265  0.90015076     1.58000
H569        H  0.59412505  0.32551385  0.07522494    -0.06800
C570        C  0.70000759  0.36518332  0.00702747     0.92400
O571        O  0.69316333  0.29609315  0.89561140    -0.83000
C572        C  0.68186181  0.28737005  0.86279524     0.92500
O573        O  0.65503936  0.24780023  0.14019130    -0.83000
Mg574      Mg  0.56395335  0.21415868  0.03166471     1.58200
O575        O  0.69570679  0.34495570  0.97577130    -0.81300
O576        O  0.55677208  0.13844918  0.95127722    -0.83000
O577        O  0.92521768  0.76411272  0.02784161    -0.88600
C578        C  0.84832127  0.79125122  0.07152673     0.87400
Mg579      Mg  0.93750240  0.77958543  0.96996057     1.58100
O580        O  0.85822208  0.69041202  0.04911113    -0.88300
O581        O  0.92172766  0.71147423  0.06476230    -0.75700
C582        C  0.82989397  0.72025979  0.85963417     0.92500
O583        O  0.88515682  0.83775597  0.00872301    -0.75500
O584        O  0.85031319  0.74485812  0.85838993    -0.83000
Mg585      Mg  0.90709458  0.81097606  0.06245279     1.58000
C586        C  0.80101367  0.62630695  0.98783414     0.92400
O587        O  0.92968441  0.78918158  0.11755297    -0.81200
H588        H  0.88043981  0.64043961  0.05558694    -0.06600
C589        C  0.81866330  0.75485219  0.96525821     0.87300
O590        O  0.92879192  0.71590561  0.94838700    -0.75800
O591        O  0.87143655  0.77420450  0.07240497    -0.88500
O592        O  0.80232894  0.64792352  0.01875956    -0.81300
C593        C  0.81239818  0.71053892  0.13230425     0.92500
C594        C  0.92524895  0.76707751  0.14691726     0.92400
Mg595      Mg  0.84837457  0.67785987  0.94505272     1.58000
O596        O  0.82604501  0.69821939  0.88915143    -0.81200
O597        O  0.86965075  0.65160294  0.99929285    -0.75500
O598        O  0.83828579  0.72095326  0.13490715    -0.81300
O599        O  0.94360191  0.85275977  0.05190028    -0.83000
O600        O  0.91590493  0.77024831  0.87230449    -0.81400
C601        C  0.86946189  0.65987797  0.03576296     0.86800
O602        O  0.88362004  0.71507710  0.93468006    -0.88500
O603        O  0.82927602  0.72458888  0.97916331    -0.88600
O604        O  0.83200950  0.77649795  0.94134584    -0.75700
Mg605      Mg  0.87937734  0.71740734  0.09754829     1.58000
O606        O  0.80181142  0.69927041  0.09961559    -0.83000
H607        H  0.95585464  0.72339541  0.03095955    -0.06800
O608        O  0.89522158  0.79850837  0.95869939    -0.88300
H609        H  0.87267058  0.84830304  0.95293442    -0.06600
H610        H  0.90856165  0.66805168  0.92486434    -0.06800
C611        C  0.88416933  0.82903396  0.97235137     0.86800
C612        C  0.93527273  0.73304232  0.04092088     0.87400
C613        C  0.90693617  0.69854174  0.93500440     0.87400
H614        H  0.79776295  0.76375486  0.97457343    -0.06700
O615        O  0.82633901  0.77426588  0.05807591    -0.75800
Mg616      Mg  0.87466958  0.77169074  0.90949270     1.58000
H617        H  0.84700571  0.82191714  0.08119960    -0.06800
C618        C  0.95325411  0.86375512  0.01909964     0.92400
O619        O  0.95133148  0.79353712  0.90888716    -0.83000
C620        C  0.94121601  0.78297418  0.87590001     0.92500
O621        O  0.90416405  0.74370649  0.14820913    -0.83000
Mg622      Mg  0.81629013  0.71075575  0.03733657     1.58200
O623        O  0.94998905  0.84292985  0.98801400    -0.81300
O624        O  0.81265402  0.63615321  0.95594851    -0.83000
O625        O  0.92109140  0.22965659  0.47334149    -0.88600
C626        C  0.84469809  0.21018652  0.42342504     0.87400
Mg627      Mg  0.93057577  0.21329795  0.53213146     1.58100
O628        O  0.85829039  0.30912830  0.44978801    -0.88300
O629        O  0.92131871  0.28286875  0.43683134    -0.75700
C630        C  0.81923053  0.27447157  0.63630434     0.92500
O631        O  0.87724738  0.15901164  0.48838440    -0.75500
O632        O  0.83898658  0.24883650  0.63804048    -0.83000
Mg633      Mg  0.90203483  0.18448056  0.43675054     1.58000
C634        C  0.80073380  0.37707704  0.50941375     0.92400
O635        O  0.92787623  0.20469956  0.38317911    -0.81200
H636        H  0.88338471  0.35686069  0.44809221    -0.06600
C637        C  0.81272297  0.24461005  0.52766411     0.87300
O638        O  0.92221224  0.27671554  0.55449697    -0.75800
O639        O  0.86864086  0.22481868  0.42504678    -0.88500
O640        O  0.80313410  0.35692503  0.47761334    -0.81300
C641        C  0.81399586  0.29380170  0.36371413     0.92500
C642        C  0.92545456  0.22745108  0.35376161     0.92400
Mg643      Mg  0.84330918  0.31926005  0.55416092     1.58000
O644        O  0.81733072  0.29836606  0.60768979    -0.81200
O645        O  0.86833498  0.34507531  0.50236979    -0.75500
O646        O  0.83925868  0.28036992  0.36168937    -0.81300
O647        O  0.93530706  0.13825904  0.44975480    -0.83000
O648        O  0.90512141  0.22127820  0.62870985    -0.81400
C649        C  0.87024337  0.33788798  0.46571289     0.86800
O650        O  0.87674666  0.27947143  0.56606545    -0.88500
O651        O  0.82447792  0.27526147  0.51644702    -0.88600
O652        O  0.82437007  0.22132023  0.55184257    -0.75700
Mg653      Mg  0.87982966  0.28099184  0.40144860     1.58000
O654        O  0.80422911  0.30849156  0.39548970    -0.83000
H655        H  0.95369149  0.26742930  0.47255006    -0.06800
O656        O  0.88745822  0.19601022  0.54005366    -0.88300
H657        H  0.86298133  0.14777896  0.54311880    -0.06600
H658        H  0.90267118  0.32481873  0.57851200    -0.06800
C659        C  0.87574973  0.16667625  0.52491458     0.86800
C660        C  0.93302675  0.25983236  0.46122456     0.87400
C661        C  0.90050185  0.29472143  0.56742540     0.87400
H662        H  0.79227118  0.23683909  0.51572498    -0.06700
O663        O  0.82305601  0.22912727  0.43535168    -0.75800
Mg664      Mg  0.86535804  0.22257994  0.58818508     1.58000
H665        H  0.84222087  0.18003853  0.41261649    -0.06800
C666        C  0.94534935  0.12831029  0.48274862     0.92400
O667        O  0.94156842  0.19812805  0.59431027    -0.83000
C668        C  0.93057274  0.20871534  0.62683105     0.92500
O669        O  0.90549500  0.25276615  0.35184181    -0.83000
Mg670      Mg  0.81506922  0.29293243  0.45784363     1.58200
O671        O  0.94322897  0.15043723  0.51314975    -0.81300
O672        O  0.80986703  0.36441926  0.54190467    -0.83000
O673        O  0.67421889  0.73882330  0.48095167    -0.88600
C674        C  0.59843423  0.70415242  0.43710135     0.87400
Mg675      Mg  0.68767278  0.72761556  0.53954226     1.58100
O676        O  0.60599713  0.80588608  0.45800573    -0.88300
O677        O  0.66999850  0.78849466  0.44073339    -0.75700
C678        C  0.57840985  0.77993458  0.64981838     0.92500
O679        O  0.63747813  0.66288920  0.50302741    -0.75500
O680        O  0.59984696  0.75713242  0.65121039    -0.83000
Mg681      Mg  0.65822208  0.68875123  0.44801261     1.58000
C682        C  0.54605276  0.86857842  0.51642022     0.92400
O683        O  0.67968402  0.70931443  0.39073454    -0.81200
H684        H  0.62650472  0.85721695  0.45094697    -0.06600
C685        C  0.56826449  0.74128058  0.54392213     0.87300
O686        O  0.67589831  0.79064936  0.55950453    -0.75800
O687        O  0.62109887  0.72237687  0.43580125    -0.88500
O688        O  0.54953891  0.84587696  0.48671605    -0.81300
C689        C  0.56036915  0.78416202  0.37562197     0.92500
C690        C  0.67430833  0.72960271  0.36023416     0.92400
Mg691      Mg  0.59414259  0.82122800  0.56239607     1.58000
O692        O  0.57297001  0.80044502  0.61951885    -0.81200
O693        O  0.61476252  0.84711473  0.50711078    -0.75500
O694        O  0.58631559  0.77425794  0.37242252    -0.81300
O695        O  0.69650631  0.65025508  0.46150892    -0.83000
O696        O  0.66602206  0.73402674  0.63776484    -0.81400
C697        C  0.61587802  0.83756314  0.47090484     0.86800
O698        O  0.63106031  0.78740843  0.57434063    -0.88500
O699        O  0.57776685  0.77179778  0.52912612    -0.88600
O700        O  0.58229674  0.72167835  0.56881354    -0.75700
Mg701      Mg  0.62753778  0.77914594  0.40929227     1.58000
O702        O  0.54975941  0.79401862  0.40858317    -0.83000
H703        H  0.70442013  0.77979092  0.47501259    -0.06800
O704        O  0.64646672  0.70417621  0.55194793    -0.88300
H705        H  0.62592477  0.65292940  0.55926498    -0.06600
H706        H  0.65380266  0.83681223  0.58290241    -0.06800
C707        C  0.63655096  0.67247564  0.53920038     0.86800
C708        C  0.68389713  0.76906511  0.46586879     0.87400
C709        C  0.65351013  0.80607073  0.57329094     0.87400
H710        H  0.54776933  0.73046869  0.53474514    -0.06700
O711        O  0.57610502  0.72017957  0.45056923    -0.75800
Mg712      Mg  0.62480193  0.73043635  0.60054680     1.58000
H713        H  0.59784344  0.67332338  0.42780848    -0.06800
C714        C  0.70803338  0.64367317  0.49451777     0.92400
O715        O  0.70270559  0.71663573  0.60067248    -0.83000
C716        C  0.69197673  0.72434381  0.63399092     0.92500
O717        O  0.65263154  0.75196239  0.35869825    -0.83000
Mg718      Mg  0.56463977  0.78358510  0.47038251     1.58200
O719        O  0.70429281  0.66671039  0.52374895    -0.81300
O720        O  0.55614451  0.86021557  0.54985511    -0.83000
C721        C  0.53049087  0.90619498  0.51142145    -0.20100
C722        C  0.53270497  0.92782741  0.47630444     0.36100
C723        C  0.51828805  0.96397934  0.47293949    -0.26100
C724        C  0.50183927  0.97888657  0.50378138     0.02500
C725        C  0.49912294  0.95721935  0.53857127     0.27300
C726        C  0.51378252  0.92116378  0.54223197    -0.25200
N727        N  0.55003109  0.91350409  0.44451481    -0.82600
H728        H  0.52006785  0.98090730  0.44628260     0.13100
C729        C  0.98745146  0.01726082  0.49875700     0.02500
N730        N  0.98089780  0.97132739  0.56944627    -0.81200
H731        H  0.51188297  0.90442684  0.56897836     0.18000
C732        C  0.96160450  0.01812333  0.47880891    -0.26000
C733        C  0.94761703  0.05425570  0.47245910     0.36000
C734        C  0.95988512  0.08993832  0.48650568    -0.20000
C735        C  0.98584514  0.08894495  0.50624156    -0.25300
C736        C  0.50003528  0.05293081  0.51199064     0.27400
H737        H  0.95235384  0.99049631  0.46831992     0.13100
N738        N  0.92083029  0.05477810  0.45261492    -0.82600
H739        H  0.49523105  0.11648490  0.51674361     0.18000
N740        N  0.52749025  0.05251985  0.53001653    -0.81200
H741        H  0.91490873  0.02602297  0.44399172     0.33600
H742        H  0.90566202  0.06465092  0.47275175     0.38100
H743        H  0.53405408  0.08143742  0.53696390     0.33600
H744        H  0.52585332  0.03763082  0.55653884     0.30300
H745        H  0.98070348  0.95132712  0.59259112     0.33600
H746        H  0.98929984  0.99782827  0.58066762     0.30300
H747        H  0.57099481  0.91388459  0.45414793     0.38100
H748        H  0.54896525  0.93266589  0.42072420     0.33600
C749        C  0.78846167  0.41738582  0.50875804    -0.20100
C750        C  0.76551799  0.42694602  0.48433492     0.36100
C751        C  0.75582807  0.46632231  0.48350986    -0.26100
C752        C  0.76852308  0.49619196  0.50663791     0.02500
C753        C  0.79109062  0.48656493  0.53163749     0.27300
C754        C  0.80074332  0.44716584  0.53257230    -0.25200
N755        N  0.75184848  0.39662179  0.46108314    -0.82600
H756        H  0.73803970  0.47378964  0.46502802     0.13100
C757        C  0.75705573  0.53700514  0.50478171     0.02500
N758        N  0.80429541  0.51684252  0.55549530    -0.81200
H759        H  0.81844324  0.43984482  0.55127051     0.18000
C760        C  0.74527085  0.55452528  0.53844802    -0.26000
C761        C  0.72992602  0.59012299  0.53627257     0.36000
C762        C  0.72616812  0.60824473  0.49933978    -0.20000
C763        C  0.73955522  0.59180197  0.46624020    -0.25300
C764        C  0.75535408  0.55672013  0.46875536     0.27400
H765        H  0.74688696  0.53936208  0.56615052     0.13100
N766        N  0.71737896  0.60690886  0.57114735    -0.82600
H767        H  0.73757107  0.60626216  0.43821976     0.18000
N768        N  0.76941237  0.54058474  0.43478592    -0.81200
H769        H  0.72299119  0.59057885  0.59578551     0.33600
H770        H  0.69547104  0.60430707  0.56832416     0.38100
H771        H  0.76607838  0.55862082  0.41053573     0.33600
H772        H  0.79110686  0.54119489  0.44048067     0.30300
H773        H  0.82054658  0.50474943  0.57230276     0.33600
H774        H  0.81371833  0.53717288  0.53668489     0.30300
H775        H  0.74265471  0.37652344  0.48035094     0.38100
H776        H  0.73534699  0.40870997  0.44473974     0.33600
C777        C  0.95990700  0.78428729  0.84114861    -0.20100
C778        C  0.98005513  0.81493748  0.83640198     0.36100
C779        C  0.99826724  0.81371431  0.80394598    -0.26100
C780        C  0.99731644  0.78217905  0.77680956     0.02500
C781        C  0.97754665  0.75133006  0.78161259     0.27300
C782        C  0.95865573  0.75310565  0.81338213    -0.25200
N783        N  0.98166111  0.84759385  0.86397623    -0.82600
H784        H  0.01368576  0.83712910  0.80008860     0.13100
C785        C  0.51786677  0.78157266  0.74421935     0.02500
N786        N  0.47764832  0.71746145  0.75542381    -0.81200
H787        H  0.94360491  0.72925199  0.81735022     0.18000
C788        C  0.54541225  0.76821611  0.75116234    -0.26000
C789        C  0.56595168  0.76850631  0.72138856     0.36000
C790        C  0.55850588  0.78185464  0.68356686    -0.20000
C791        C  0.53096075  0.79615219  0.67724183    -0.25300
C792        C  0.51065486  0.79638194  0.70720482     0.27400
H793        H  0.55093255  0.75791141  0.78011268     0.13100
N794        N  0.59428254  0.75575100  0.72967417    -0.82600
H795        H  0.52503974  0.80682273  0.64859811     0.18000
N796        N  0.98303842  0.81272421  0.70052306    -0.81200
H797        H  0.59603464  0.74643989  0.75866705     0.33600
H798        H  0.60748479  0.78047602  0.72708445     0.38100
H799        H  0.98143954  0.82352914  0.67204306     0.33600
H800        H  0.96830485  0.78978354  0.70253415     0.30300
H801        H  0.46241994  0.69679292  0.76386157     0.33600
H802        H  0.47178205  0.72698715  0.72761765     0.30300
H803        H  0.99078266  0.83694414  0.88965492     0.38100
H804        H  0.99546812  0.86940719  0.85387301     0.33600
C805        C  0.54147584  0.78328524  0.34062265    -0.20100
C806        C  0.55194992  0.78127638  0.30174999     0.36100
C807        C  0.53283830  0.77844282  0.27021470    -0.26100
C808        C  0.50362663  0.77804162  0.27661173     0.02500
C809        C  0.49306522  0.78103377  0.31500247     0.27300
C810        C  0.51202415  0.78356090  0.34655992    -0.25200
N811        N  0.58180188  0.78235016  0.29426402    -0.82600
H812        H  0.54070205  0.77655587  0.24043745     0.13100
C813        C  0.98412905  0.77504049  0.24283279     0.02500
N814        N  0.96308110  0.78144172  0.32169666    -0.81200
H815        H  0.50362458  0.78526351  0.37603912     0.18000
C816        C  0.96814424  0.74038434  0.23728486    -0.26000
C817        C  0.94894786  0.73674331  0.20601354     0.36000
C818        C  0.94535065  0.76893293  0.18022903    -0.20000
C819        C  0.96174771  0.80340257  0.18574410    -0.25300
C820        C  0.98097465  0.80683902  0.21691222     0.27400
H821        H  0.97088911  0.71599016  0.25730718     0.13100
N822        N  0.93357303  0.70029973  0.20006109    -0.82600
H823        H  0.95923497  0.82810639  0.16604715     0.18000
N824        N  0.99705330  0.84266967  0.22273643    -0.81200
H825        H  0.93840915  0.67998771  0.22195834     0.33600
H826        H  0.94049499  0.68755053  0.17364938     0.38100
H827        H  0.99239261  0.86318409  0.20095260     0.33600
H828        H  0.49063340  0.85554738  0.24931490     0.30300
H829        H  0.95870579  0.78358949  0.35167012     0.33600
H830        H  0.95495975  0.80713302  0.30903810     0.30300
H831        H  0.58912506  0.81042702  0.30296751     0.38100
H832        H  0.58586288  0.77963453  0.26423537     0.33600
C833        C  0.80955259  0.71837006  0.82647431    -0.20100
C834        C  0.79298527  0.68418590  0.81807716     0.36100
C835        C  0.77408761  0.68455482  0.78626516    -0.26100
C836        C  0.77065410  0.71858893  0.76361811     0.02500
C837        C  0.78673293  0.75279784  0.77222840     0.27300
C838        C  0.80613689  0.75224736  0.80331560    -0.25200
N839        N  0.79549952  0.64910493  0.84137265    -0.82600
H840        H  0.76145822  0.65847046  0.77957027     0.13100
C841        C  0.74983916  0.71834836  0.73120180     0.02500
N842        N  0.78323497  0.78795839  0.74930577    -0.81200
H843        H  0.81835463  0.77874270  0.80985954     0.18000
C844        C  0.72659448  0.74406768  0.73327287    -0.26000
C845        C  0.70688008  0.74596073  0.70252990     0.36000
C846        C  0.71062990  0.72157685  0.66886376    -0.20000
C847        C  0.73380847  0.69536317  0.66724451    -0.25300
C848        C  0.75348407  0.69361071  0.69799156     0.27400
H849        H  0.72398303  0.76298252  0.75897857     0.13100
N850        N  0.68390169  0.77378108  0.70479051    -0.82600
H851        H  0.73680825  0.67647143  0.64159869     0.18000
N852        N  0.77744824  0.66747496  0.69532951    -0.81200
H853        H  0.68567659  0.79170340  0.72995103     0.33600
H854        H  0.66531656  0.75743579  0.70812832     0.38100
H855        H  0.77702364  0.65121023  0.66899825     0.33600
H856        H  0.79560307  0.68512829  0.69459324     0.30300
H857        H  0.79639064  0.81074148  0.75967819     0.33600
H858        H  0.78981307  0.78118673  0.72075170     0.30300
H859        H  0.78602766  0.65527053  0.86843674     0.38100
H860        H  0.78383137  0.62573500  0.82895983     0.33600
C861        C  0.79354638  0.71242076  0.16759789    -0.20100
C862        C  0.80269692  0.72681370  0.20482756     0.36100
C863        C  0.78308435  0.73046415  0.23580986    -0.26100
C864        C  0.75475088  0.71900543  0.23102635     0.02500
C865        C  0.74583378  0.70357624  0.19447530     0.27300
C866        C  0.76509178  0.70091708  0.16325385    -0.25200
N867        N  0.83167984  0.73785816  0.21125588    -0.82600
H868        H  0.78994710  0.74217475  0.26398725     0.13100
C869        C  0.73458189  0.72244488  0.26452613     0.02500
N870        N  0.71721914  0.69018521  0.18931733    -0.81200
H871        H  0.75765605  0.68954789  0.13525349     0.18000
C872        C  0.70950624  0.74416508  0.26010211    -0.26000
C873        C  0.68929768  0.74679279  0.29031309     0.36000
C874        C  0.69435538  0.72737684  0.32630739    -0.20000
C875        C  0.71961285  0.70566954  0.33046510    -0.25300
C876        C  0.73958918  0.70284542  0.30006057     0.27400
H877        H  0.70570180  0.75925061  0.23276995     0.13100
N878        N  0.66365920  0.76869842  0.28406132    -0.82600
H879        H  0.72389391  0.69055048  0.35762182     0.18000
N880        N  0.76476330  0.67956497  0.30492713    -0.81200
H881        H  0.66232573  0.77812893  0.25506431     0.33600
H882        H  0.66473601  0.79453614  0.30136278     0.38100
H883        H  0.76535150  0.66708107  0.33278450     0.33600
H884        H  0.76386266  0.65587772  0.28480461     0.30300
H885        H  0.71392538  0.67975380  0.16067634     0.33600
H886        H  0.71419596  0.66595605  0.20767158     0.30300
H887        H  0.84374004  0.71187804  0.20952870     0.38100
H888        H  0.83451943  0.74928322  0.23964097     0.33600
C889        C  0.94887829  0.20768909  0.66256187    -0.20100
C890        C  0.94121114  0.22593677  0.69873209     0.36100
C891        C  0.96117488  0.22827988  0.72940455    -0.26100
C892        C  0.98841463  0.21241097  0.72502823     0.02500
C893        C  0.99580473  0.19321963  0.68960293     0.27300
C894        C  0.97600398  0.19076133  0.65905247    -0.25200
N895        N  0.91357398  0.24277673  0.70412325    -0.82600
H896        H  0.45558213  0.24276359  0.75686786     0.13100
C897        C  0.50917709  0.21586656  0.75765888     0.02500
N898        N  0.02370357  0.17712302  0.68445488    -0.81200
H899        H  0.98225115  0.17637055  0.63182977     0.18000
C900        C  0.51960128  0.18123322  0.77483124    -0.26000
C901        C  0.53950189  0.18301254  0.80544486     0.36000
C902        C  0.54946623  0.22038900  0.81898132    -0.20000
C903        C  0.53937219  0.25505208  0.80120000    -0.25300
C904        C  0.51926380  0.25317358  0.77077539     0.27400
H905        H  0.01192648  0.15263767  0.76442910     0.13100
N906        N  0.55029599  0.14691716  0.82176036    -0.82600
H907        H  0.54695271  0.28375381  0.81143841     0.18000
N908        N  0.50920880  0.28891313  0.75291563    -0.81200
H909        H  0.04278414  0.12222243  0.80600272     0.33600
H910        H  0.54187386  0.14432871  0.84988890     0.38100
H911        H  0.51859563  0.31389809  0.76600735     0.33600
H912        H  0.51572793  0.28833294  0.72365280     0.30300
H913        H  0.02578506  0.16377295  0.65675645     0.33600
H914        H  0.03794489  0.20085830  0.68542914     0.30300
H915        H  0.89911445  0.21929980  0.70398096     0.38100
H916        H  0.91192069  0.25654975  0.73168344     0.33600
C917        C  0.54465909  0.20956897  0.16286961    -0.20100
C918        C  0.55310394  0.22653798  0.19934366     0.36100
C919        C  0.53442949  0.22574671  0.23146641    -0.26100
C920        C  0.50730884  0.20950399  0.22775250     0.02500
C921        C  0.49895722  0.19200768  0.19192526     0.27300
C922        C  0.51767841  0.19199663  0.16001676    -0.25200
N923        N  0.58010497  0.24564937  0.20353580    -0.82600
H924        H  0.54056540  0.23940519  0.25913401     0.13100
C925        C  0.98689740  0.21400579  0.26045560     0.02500
N926        N  0.97122796  0.17499041  0.18796253    -0.81200
H927        H  0.51086384  0.17861962  0.13254366     0.18000
C928        C  0.96516462  0.24192090  0.25715421    -0.26000
C929        C  0.94522933  0.24765920  0.28722633     0.36000
C930        C  0.94659085  0.22397352  0.32125379    -0.20000
C931        C  0.96879840  0.19621341  0.32442904    -0.25300
C932        C  0.98890012  0.19102837  0.29441420     0.27400
H933        H  0.96400744  0.25973389  0.23100560     0.13100
N934        N  0.92379078  0.27753248  0.28306624    -0.82600
H935        H  0.97047141  0.17816581  0.35033592     0.18000
N936        N  0.51119672  0.16231419  0.29811052    -0.81200
H937        H  0.92492976  0.29056115  0.25549045     0.33600
H938        H  0.92820254  0.30018146  0.30345703     0.38100
H939        H  0.50985622  0.14797639  0.32501335     0.33600
H940        H  0.50813004  0.14050509  0.27639281     0.30300
H941        H  0.96816594  0.16363902  0.15959808     0.33600
H942        H  0.97009018  0.15085295  0.20682965     0.30300
H943        H  0.57966676  0.27128255  0.18660655     0.38100
H944        H  0.58330848  0.25522317  0.23248086     0.33600
C945        C  0.69974436  0.28878405  0.82689805    -0.20100
C946        C  0.72568539  0.30971725  0.82654812     0.36100
C947        C  0.74324569  0.30742902  0.79355668    -0.26100
C948        C  0.73557881  0.28486288  0.76046797     0.02500
C949        C  0.70936196  0.26497121  0.75989490     0.27300
C950        C  0.69169815  0.26710625  0.79310614    -0.25200
N951        N  0.73437187  0.33356420  0.85953314    -0.82600
H952        H  0.76327207  0.32302761  0.79398415     0.13100
C953        C  0.75570771  0.28194076  0.72717099     0.02500
N954        N  0.70089282  0.24259579  0.72568052    -0.81200
H955        H  0.67187656  0.25103874  0.79285366     0.18000
C956        C  0.76908156  0.24564223  0.71893739    -0.26000
C957        C  0.78982178  0.24238268  0.68950538     0.36000
C958        C  0.79753791  0.27638481  0.66796039    -0.20000
C959        C  0.78358252  0.31252320  0.67584816    -0.25300
C960        C  0.76282266  0.31562505  0.70524325     0.27400
H961        H  0.76349374  0.21983783  0.73589152     0.13100
N962        N  0.80273048  0.20454272  0.68116695    -0.82600
H963        H  0.78909286  0.33860594  0.65927836     0.18000
N964        N  0.74896116  0.35287597  0.71311226    -0.81200
H965        H  0.79498736  0.18285279  0.69995822     0.33600
H966        H  0.79664386  0.19584606  0.65285964     0.38100
H967        H  0.75662162  0.37485441  0.69458450     0.33600
H968        H  0.72756562  0.34920959  0.70639541     0.30300
H969        H  0.68107792  0.22966802  0.72996336     0.33600
H970        H  0.69856282  0.26260805  0.70276482     0.30300
H971        H  0.75384129  0.32292214  0.86931995     0.38100
H972        H  0.73728802  0.36268971  0.85010365     0.33600
C973        C  0.79478159  0.29091496  0.32895940    -0.20100
C974        C  0.76498614  0.29073871  0.33369793     0.36100
C975        C  0.74739866  0.28755553  0.30068039    -0.26100
C976        C  0.75852067  0.28322079  0.26293534     0.02500
C977        C  0.78808780  0.28263480  0.25784154     0.27300
C978        C  0.80594572  0.28661112  0.29088226    -0.25200
N979        N  0.75250004  0.29258831  0.37208659    -0.82600
H980        H  0.72467591  0.28781244  0.30442344     0.13100
C981        C  0.73849122  0.27904465  0.22945999     0.02500
N982        N  0.79979621  0.27754581  0.21926471    -0.81200
H983        H  0.82863184  0.28617924  0.28688111     0.18000
C984        C  0.73672739  0.30924195  0.20179984    -0.26000
C985        C  0.71607439  0.30830583  0.17204971     0.36000
C986        C  0.69692242  0.27585769  0.16940419    -0.20000
C987        C  0.69900878  0.24550658  0.19716545    -0.25300
C988        C  0.71957755  0.24673505  0.22698771     0.27400
H989        H  0.75101701  0.33430798  0.20420819     0.13100
N990        N  0.71428024  0.34064421  0.14510942    -0.82600
H991        H  0.68475116  0.22038120  0.19538183     0.18000
N992        N  0.72140604  0.21525526  0.25488362    -0.81200
H993        H  0.73022130  0.36148039  0.15062152     0.33600
H994        H  0.69515172  0.35528157  0.15033932     0.38100
H995        H  0.70597400  0.19370541  0.24923218     0.33600
H996        H  0.74095239  0.20132845  0.25096853     0.30300
H997        H  0.82185532  0.27768562  0.22047716     0.33600
H998        H  0.79384485  0.24939327  0.20886470     0.30300
H999        H  0.75774624  0.26629046  0.38631307     0.38100
H1000       H  0.73046535  0.29317454  0.37027665     0.33600
C1001       C  0.53427542  0.08940051  0.99017175    -0.20100
C1002       C  0.53946799  0.05690462  0.96441845     0.36100
C1003       C  0.52602404  0.02050021  0.97108606    -0.26100
C1004       C  0.50786897  0.01572275  0.00303898     0.02500
C1005       C  0.00299009  0.04772421  0.02915179     0.27300
C1006       C  0.51642129  0.08417124  0.02261706    -0.25200
N1007       N  0.55869087  0.06060851  0.93208506    -0.82600
H1008       H  0.52980346  0.99551471  0.95139546     0.13100
C1009       C  0.99342886  0.97722809  0.00782730     0.02500
N1010       N  0.98413615  0.04319454  0.06177256    -0.81200
H1011       H  0.01247563  0.10884551  0.04262717     0.18000
C1012       C  0.99937549  0.95399200  0.04057664    -0.26000
C1013       C  0.98649280  0.91672473  0.04525469     0.36000
C1014       C  0.96758907  0.90252464  0.01621368    -0.20000
C1015       C  0.96184419  0.92589223  0.98340909    -0.25300
C1016       C  0.47434491  0.96329510  0.97915433     0.27400
H1017       H  0.01428788  0.96488397  0.06231129     0.13100
N1018       N  0.99347021  0.89270405  0.07837812    -0.82600
H1019       H  0.94712440  0.91517774  0.96132991     0.18000
N1020       N  0.46763311  0.98742936  0.94599379    -0.81200
H1021       H  0.00942729  0.90617367  0.09508370     0.33600
H1022       H  0.97573223  0.89180130  0.09651982     0.38100
H1023       H  0.45326718  0.97282658  0.92749876     0.33600
H1024       H  0.45748395  0.01300979  0.95653898     0.30300
H1025       H  0.98298416  0.06954572  0.07830079     0.33600
H1026       H  0.96391841  0.03804349  0.05046401     0.30300
H1027       H  0.57888216  0.06511980  0.94374753     0.38100
H1028       H  0.55960734  0.03414868  0.91569995     0.33600
C1029       C  0.78606205  0.58812385  0.98923653    -0.20100
C1030       C  0.79773273  0.55348503  0.97182324     0.36100
C1031       C  0.78331277  0.51739405  0.97499635    -0.26100
C1032       C  0.75765742  0.51531051  0.99508771     0.02500
C1033       C  0.74611497  0.54965469  0.01289432     0.27300
C1034       C  0.76056106  0.58584307  0.00991899    -0.25200
N1035       N  0.82479439  0.55459697  0.95276931    -0.82600
H1036       H  0.79221342  0.49058748  0.96208237     0.13100
C1037       C  0.74347260  0.47657301  0.99783336     0.02500
N1038       N  0.71987411  0.54752428  0.03390626    -0.81200
H1039       H  0.75184343  0.61241129  0.02353188     0.18000
C1040       C  0.74017226  0.45955824  0.03464845    -0.26000
C1041       C  0.72646887  0.42296782  0.03873104     0.36000
C1042       C  0.71613671  0.40279218  0.00485072    -0.20000
C1043       C  0.72046267  0.41956755  0.96782429    -0.25300
C1044       C  0.73381860  0.45641187  0.96402113     0.27400
H1045       H  0.74816088  0.47516367  0.06036118     0.13100
N1046       N  0.72339426  0.40637954  0.07707263    -0.82600
H1047       H  0.71274531  0.40445137  0.94169743     0.18000
N1048       N  0.73730176  0.47374991  0.92607114    -0.81200
H1049       H  0.73496848  0.42280442  0.09778335     0.33600
H1050       H  0.70223630  0.40962747  0.08518914     0.38100
H1051       H  0.72920353  0.45495005  0.90414050     0.33600
H1052       H  0.72524848  0.49975540  0.92557236     0.30300
H1053       H  0.71443742  0.57539733  0.04551980     0.33600
H1054       H  0.70409756  0.53979331  0.01374962     0.30300
H1055       H  0.82217717  0.56930953  0.92627166     0.38100
H1056       H  0.83151991  0.52588185  0.94531489     0.33600
loop_ 
_geom_bond_atom_site_label_1 
_geom_bond_atom_site_label_2 
_geom_bond_distance 
_geom_bond_site_symmetry_2 
_ccdc_geom_bond_type 
O1           Mg3   2.140   1_554  S
O1           Mg9   2.139       .  S
O1           C36   1.236       .  S
C2           O15   1.238       .  S
C2           O39   1.270       .  A
C2           H41   1.081       .  S
Mg3          O32   2.148       .  S
Mg3          O47   2.288       .  S
Mg3          O43   2.248       .  S
Mg3          O14   2.286       .  S
O4          Mg46   2.145       .  S
O4          Mg29   2.140       .  S
O4           C25   1.240       .  S
O5           C36   1.270       .  A
O5          Mg29   2.301       .  S
C6            O8   1.277       .  A
C6           O20   1.278       .  A
C6          C374   1.488       .  S
O7           C35   1.273   1_554  A
O7           Mg9   2.307       .  S
O8          Mg40   2.285       .  S
Mg9          O15   2.115       .  S
Mg9          O23   2.232       .  S
Mg9          O11   2.301       .  S
C10          O48   1.272       .  A
C10          O16   1.272   1_556  A
C10         C473   1.480       .  S
O11          C18   1.274       .  A
H12          C25   1.081       .  S
C13          O27   1.237       .  S
C13          O28   1.270       .  A
C13          H38   1.081       .  S
O14          C37   1.269       .  A
O15         Mg29   2.151       .  S
O16         Mg46   2.277       .  S
C17          O30   1.273       .  A
C17          O22   1.278       .  A
C17         C389   1.497       .  S
C18          O45   1.277       .  A
C18         C458   1.497       .  S
Mg19         O26   2.115       .  S
Mg19         O27   2.143       .  S
Mg19         O20   2.319       .  S
Mg19         O21   2.304       .  S
Mg19         O48   2.261       .  S
O21          C25   1.273   1_556  A
O22         Mg29   2.329       .  S
O23          C42   1.266       .  A
O24          C44   1.280       .  A
O24         Mg40   2.336       .  S
O26         Mg40   2.147       .  S
O26          C37   1.236       .  S
O27         Mg46   2.140   1_556  S
O28         Mg40   2.298       .  S
Mg29         O45   2.296       .  S
O30         Mg46   2.259       .  S
H31          C36   1.081       .  S
O32         Mg40   2.146       .  S
O32          C35   1.239       .  S
H33          C35   1.081       .  S
H34          C37   1.081       .  S
O39         Mg46   2.290       .  S
C42          O47   1.273   1_554  A
C42         C514   1.481       .  S
O43          C44   1.271       .  A
C44         C417   1.492       .  S
O49         Mg51   2.132   1_554  S
O49         Mg57   2.138       .  S
O49          C84   1.238       .  S
C50          O63   1.237       .  S
C50          O87   1.270       .  A
C50          H89   1.081       .  S
Mg51         O80   2.138       .  S
Mg51         O95   2.288       .  S
Mg51         O91   2.242       .  S
Mg51         O62   2.294       .  S
O52         Mg94   2.141       .  S
O52         Mg77   2.125       .  S
O52          C73   1.239       .  S
O53          C84   1.272       .  A
O53         Mg77   2.305       .  S
C54          O56   1.274       .  A
C54          O68   1.273       .  A
C54         C305   1.486       .  S
O55          C83   1.272   1_554  A
O55         Mg57   2.302       .  S
O56         Mg88   2.267       .  S
Mg57         O63   2.124       .  S
Mg57         O71   2.261       .  S
Mg57         O59   2.293       .  S
C58          O96   1.269       .  A
C58          O64   1.275   1_556  A
C58         C501   1.469       .  S
O59          C66   1.275       .  A
H60          C73   1.081       .  S
C61          O75   1.237       .  S
C61          O76   1.271       .  A
C61          H86   1.081       .  S
O62          C85   1.270       .  A
O63         Mg77   2.141       .  S
O64         Mg94   2.296       .  S
C65          O78   1.275       .  A
C65          O70   1.278       .  A
C65         C333   1.501       .  S
C66          O93   1.272       .  A
C66         C290   1.483       .  S
Mg67         O74   2.120       .  S
Mg67         O75   2.144       .  S
Mg67         O68   2.294       .  S
Mg67         O69   2.295       .  S
Mg67         O96   2.233       .  S
O69          C73   1.272   1_556  A
O70         Mg77   2.330       .  S
O71          C90   1.270       .  A
O72          C92   1.278       .  A
O72         Mg88   2.330       .  S
O74         Mg88   2.145       .  S
O74          C85   1.237       .  S
O75         Mg94   2.137   1_556  S
O76         Mg88   2.300       .  S
Mg77         O93   2.259       .  S
O78         Mg94   2.273       .  S
H79          C84   1.081       .  S
O80         Mg88   2.130       .  S
O80          C83   1.238       .  S
H81          C83   1.081       .  S
H82          C85   1.081       .  S
O87         Mg94   2.292       .  S
C90          O95   1.272   1_554  A
C90         C486   1.476       .  S
O91          C92   1.269       .  A
C92         C249   1.482       .  S
O97         Mg99   2.136       .  S
O97        Mg105   2.151       .  S
O97         C132   1.239       .  S
C98         O111   1.237       .  S
C98         O135   1.271       .  A
C98         H137   1.081       .  S
Mg99        O128   2.142       .  S
Mg99        O143   2.284       .  S
Mg99        O139   2.251       .  S
Mg99        O110   2.291       .  S
O100       Mg142   2.137       .  S
O100       Mg125   2.149       .  S
O100        C121   1.240       .  S
O101        C132   1.273       .  A
O101       Mg125   2.306       .  S
C102        O104   1.275       .  A
C102        O116   1.278       .  A
C102        C430   1.492       .  S
O103        C131   1.272       .  A
O103       Mg105   2.295       .  S
O104       Mg136   2.280       .  S
Mg105       O111   2.126       .  S
Mg105       O119   2.263       .  S
Mg105       O107   2.312       .  S
C106        O144   1.270       .  A
C106        O112   1.277       .  A
C106        C221   1.477       .  S
O107        C114   1.277       .  A
H108        C121   1.081       .  S
C109        O123   1.238       .  S
C109        O124   1.272       .  A
C109        H134   1.081       .  S
O110        C133   1.270       .  A
O111       Mg125   2.133       .  S
O112       Mg142   2.318       .  S
C113        O126   1.273       .  A
C113        O118   1.281       .  A
C113        C445   1.496       .  S
C114        O141   1.275       .  A
C114        C402   1.498       .  S
Mg115       O122   2.117       .  S
Mg115       O123   2.142       .  S
Mg115       O116   2.321       .  S
Mg115       O117   2.310       .  S
Mg115       O144   2.239       .  S
O117        C121   1.274       .  A
O118       Mg125   2.351       .  S
O119        C138   1.272       .  A
O120        C140   1.279       .  A
O120       Mg136   2.336       .  S
O122       Mg136   2.138       .  S
O122        C133   1.237       .  S
O123       Mg142   2.142       .  S
O124       Mg136   2.303       .  S
Mg125       O141   2.281       .  S
O126       Mg142   2.258       .  S
H127        C132   1.081       .  S
O128       Mg136   2.134       .  S
O128        C131   1.239       .  S
H129        C131   1.081       .  S
H130        C133   1.081       .  S
O135       Mg142   2.302       .  S
C138        O143   1.272       .  A
C138        C206   1.471       .  S
O139        C140   1.273       .  A
C140        C361   1.496       .  S
O145       Mg147   2.137       .  S
O145       Mg153   2.150       .  S
O145        C180   1.236       .  S
C146        O159   1.237       .  S
C146        O183   1.271       .  A
C146        H185   1.081       .  S
Mg147       O176   2.150       .  S
Mg147       O191   2.255       .  S
Mg147       O187   2.240       .  S
Mg147       O158   2.288       .  S
O148       Mg190   2.142       .  S
O148       Mg173   2.139       .  S
O148        C169   1.239       .  S
O149        C180   1.270       .  A
O149       Mg173   2.298       .  S
C150        O152   1.274       .  A
C150        O164   1.278       .  A
C150        C262   1.490       .  S
O151        C179   1.272       .  A
O151       Mg153   2.302       .  S
O152       Mg184   2.270       .  S
Mg153       O159   2.135       .  S
Mg153       O167   2.280       .  S
Mg153       O155   2.319       .  S
C154        O192   1.272       .  A
C154        O160   1.272       .  A
C154        C193   1.477       .  S
O155        C162   1.279       .  A
H156        C169   1.081       .  S
C157        O171   1.236       .  S
C157        O172   1.271       .  A
C157        H182   1.081       .  S
O158        C181   1.269       .  A
O159       Mg173   2.148       .  S
O160       Mg190   2.277       .  S
C161        O174   1.272       .  A
C161        O166   1.278       .  A
C161        C277   1.492       .  S
C162        O189   1.275       .  A
C162        C346   1.499       .  S
Mg163       O170   2.129       .  S
Mg163       O171   2.145       .  S
Mg163       O164   2.311       .  S
Mg163       O165   2.308       .  S
Mg163       O192   2.272       .  S
O165        C169   1.274       .  A
O166       Mg173   2.326       .  S
O167        C186   1.274       .  A
O168        C188   1.278       .  A
O168       Mg184   2.330       .  S
O170       Mg184   2.149       .  S
O170        C181   1.236       .  S
O171       Mg190   2.141       .  S
O172       Mg184   2.302       .  S
Mg173       O189   2.278       .  S
O174       Mg190   2.256       .  S
H175        C180   1.081       .  S
O176       Mg184   2.132       .  S
O176        C179   1.239       .  S
H177        C179   1.081       .  S
H178        C181   1.081       .  S
O183       Mg190   2.295       .  S
C186        O191   1.267       .  A
C186        C234   1.481       .  S
O187        C188   1.269       .  A
C188        C318   1.486       .  S
C193        C194   1.416       .  A
C193        C198   1.404       .  A
C194        C195   1.402       .  A
C194        N199   1.439       .  S
C195        H200   1.084       .  S
C195        C196   1.398       .  A
C196        C729   1.473   1_465  S
C196        C197   1.409   1_455  A
C197        C198   1.406   1_655  A
C197        N730   1.438       .  S
C198        H203   1.084       .  S
N199        H219   1.046       .  S
N199        H220   1.046       .  S
C201        C724   1.473   1_545  S
C201        C204   1.401       .  A
C201        C736   1.408       .  A
N202        C725   1.438       .  S
N202        H217   1.046       .  S
N202        H218   1.044       .  S
C204        H209   1.084   1_545  S
C204        C205   1.405       .  A
C205        C206   1.412       .  A
C205        N210   1.438       .  S
C206        C207   1.402       .  A
C207        H739   1.084       .  S
C207        C736   1.403       .  A
C208        C729   1.408   1_455  A
C208        C735   1.403   1_455  A
C208        N212   1.438       .  S
N210        H213   1.046       .  S
N210        H214   1.046       .  S
H211        C735   1.084       .  S
N212        H215   1.046       .  S
N212        H216   1.044       .  S
C221        C222   1.409       .  A
C221        C226   1.407       .  A
C222        C223   1.404       .  A
C222        N227   1.437       .  S
C223        H228   1.084       .  S
C223        C224   1.404       .  A
C224        C229   1.480       .  S
C224        C225   1.408       .  A
C225        C226   1.404       .  A
C225        N230   1.438       .  S
C226        H231   1.084       .  S
N227        H247   1.046       .  S
N227        H248   1.046       .  S
C229        C232   1.400       .  A
C229        C236   1.408       .  A
N230        H245   1.046       .  S
N230        H246   1.046       .  S
C232        H237   1.084       .  S
C232        C233   1.405       .  A
C233        C234   1.420       .  A
C233        N238   1.439       .  S
C234        C235   1.403       .  A
C235        H239   1.084       .  S
C235        C236   1.402       .  A
C236        N240   1.437       .  S
N238        H241   1.046       .  S
N238        H242   1.046       .  S
N240        H243   1.046       .  S
N240        H244   1.046       .  S
C249        C250   1.416       .  A
C249        C254   1.405       .  A
C250        C251   1.405       .  A
C250        N255   1.439       .  S
C251        H256   1.084       .  S
C251        C252   1.399       .  A
C252        C785   1.479       .  S
C252        C253   1.410       .  A
C253        C254   1.407       .  A
C253        N786   1.438       .  S
C254        H259   1.084       .  S
N255        H275   1.045       .  S
N255        H276   1.046       .  S
C257        C780   1.479   1_455  S
C257        C260   1.401       .  A
C257        C264   1.407       .  A
N258        C781   1.438       .  S
N258        H273   1.046       .  S
N258        H274   1.044       .  S
C260        H265   1.084       .  S
C260        C261   1.408       .  A
C261        C262   1.417       .  A
C261        N266   1.438       .  S
C262        C263   1.408       .  A
C263        H267   1.083       .  S
C263        C264   1.405       .  A
C264        N796   1.439   1_455  S
N266        H269   1.046       .  S
N266        H270   1.046       .  S
N268        C792   1.439       .  S
N268        H271   1.046       .  S
N268        H272   1.044       .  S
C277        C278   1.418       .  A
C277        C282   1.410       .  A
C278        C279   1.408       .  A
C278        N283   1.438       .  S
C279        H284   1.084       .  S
C279        C280   1.401       .  A
C280        C813   1.479   1_455  S
C280        C281   1.405   1_455  A
C281        C282   1.403   1_655  A
C281        N814   1.438       .  S
C282        H287   1.083       .  S
N283        H303   1.046       .  S
N283        H304   1.046       .  S
C285        C808   1.479       .  S
C285        C288   1.401       .  A
C285        C292   1.407       .  A
N286        C809   1.438       .  S
N286        H301   1.046       .  S
N286        H302   1.046       .  S
C288        H293   1.084       .  S
C288        C289   1.405       .  A
C289        C290   1.416       .  A
C289        N294   1.438       .  S
C290        C291   1.406       .  A
C291        H295   1.084       .  S
C291        C292   1.403       .  A
C292        N296   1.438       .  S
N294        H297   1.046       .  S
N294        H298   1.046       .  S
N296        H299   1.046       .  S
N296        H828   1.046       .  S
H300        N824   1.046       .  S
C305        C306   1.418       .  A
C305        C310   1.406       .  A
C306        C307   1.407       .  A
C306        N311   1.438       .  S
C307        H312   1.084       .  S
C307        C308   1.401       .  A
C308        C313   1.481       .  S
C308        C309   1.408       .  A
C309        C310   1.403       .  A
C309        N314   1.438       .  S
C310        H315   1.083       .  S
N311        H331   1.045       .  S
N311        H332   1.046       .  S
C313        C316   1.402       .  A
C313        C320   1.407       .  A
N314        H329   1.046       .  S
N314        H330   1.045       .  S
C316        H321   1.084       .  S
C316        C317   1.406       .  A
C317        C318   1.414       .  A
C317        N322   1.437       .  S
C318        C319   1.409       .  A
C319        H323   1.084       .  S
C319        C320   1.405       .  A
C320        N324   1.438       .  S
N322        H325   1.046       .  S
N322        H326   1.045       .  S
N324        H327   1.046       .  S
N324        H328   1.046       .  S
C333        C334   1.421       .  A
C333        C338   1.409       .  A
C334        C335   1.412       .  A
C334        N339   1.438       .  S
C335        H340   1.084       .  S
C335        C336   1.405       .  A
C336        C341   1.494       .  S
C336        C337   1.409       .  A
C337        C338   1.405       .  A
C337        N342   1.438       .  S
C338        H343   1.083       .  S
N339        H359   1.046       .  S
N339        H360   1.046       .  S
C341        C344   1.404       .  A
C341        C348   1.409       .  A
N342        H357   1.045       .  S
N342        H358   1.046       .  S
C344        H349   1.084       .  S
C344        C345   1.409       .  A
C345        C346   1.420       .  A
C345        N350   1.438       .  S
C346        C347   1.410       .  A
C347        H351   1.083       .  S
C347        C348   1.407       .  A
C348        N352   1.438       .  S
N350        H353   1.046       .  S
N350        H354   1.045       .  S
N352        H355   1.046       .  S
N352        H356   1.046       .  S
C361        C362   1.418       .  A
C361        C366   1.410       .  A
C362        C363   1.411       .  A
C362        N367   1.438       .  S
C363        H896   1.084       .  S
C363        C364   1.404       .  A
C364        C897   1.488       .  S
C364        C365   1.407       .  A
C365        C366   1.403       .  A
C365        N370   1.438       .  S
C366        H371   1.083       .  S
N367        H387   1.046       .  S
N367        H388   1.046       .  S
H368        C891   1.084       .  S
C369        C892   1.488   1_455  S
C369        C372   1.402       .  A
C369        C376   1.410       .  A
N370        H385   1.046       .  S
N370        H386   1.046       .  S
C372        H905   1.084       .  S
C372        C373   1.407       .  A
C373        C374   1.415       .  A
C373        N378   1.438       .  S
C374        C375   1.407       .  A
C375        H379   1.084       .  S
C375        C376   1.409       .  A
C376        N380   1.438       .  S
H377        C900   1.084       .  S
N378        H382   1.045       .  S
N378        H909   1.046       .  S
N380        H383   1.046       .  S
N380        H384   1.046       .  S
H381        N906   1.046       .  S
C389        C390   1.419       .  A
C389        C394   1.411       .  A
C390        C391   1.410       .  A
C390        N395   1.438       .  S
C391        H396   1.084       .  S
C391        C392   1.401       .  A
C392        C925   1.483   1_455  S
C392        C393   1.406   1_455  A
C393        C394   1.405   1_655  A
C393        N926   1.438       .  S
C394        H399   1.083       .  S
N395        H415   1.046       .  S
N395        H416   1.046       .  S
C397        C920   1.483       .  S
C397        C400   1.400       .  A
C397        C404   1.406       .  A
N398        C921   1.438       .  S
N398        H413   1.046       .  S
N398        H414   1.046       .  S
C400        H405   1.084       .  S
C400        C401   1.407       .  A
C401        C402   1.420       .  A
C401        N406   1.438       .  S
C402        C403   1.412       .  A
C403        H407   1.083       .  S
C403        C404   1.408       .  A
C404        N936   1.438       .  S
N406        H409   1.046       .  S
N406        H410   1.046       .  S
N408        C932   1.438   1_455  S
N408        H411   1.046       .  S
N408        H412   1.046       .  S
C417        C418   1.416       .  A
C417        C422   1.408       .  A
C418        C419   1.402       .  A
C418        N423   1.433       .  S
C419        H424   1.084       .  S
C419        C420   1.399       .  A
C420        C425   1.486       .  S
C420        C421   1.411       .  A
C421        C422   1.411       .  A
C421        N426   1.437       .  S
C422        H427   1.083       .  S
N423        H443   1.046       .  S
N423        H444   1.046       .  S
C425        C428   1.401       .  A
C425        C432   1.409       .  A
N426        H441   1.046       .  S
N426        H442   1.046       .  S
C428        H433   1.084       .  S
C428        C429   1.409       .  A
C429        C430   1.418       .  A
C429        N434   1.438       .  S
C430        C431   1.407       .  A
C431        H435   1.083       .  S
C431        C432   1.408       .  A
C432        N436   1.438       .  S
N434        H437   1.046       .  S
N434        H438   1.046       .  S
N436        H439   1.045       .  S
N436        H440   1.046       .  S
C445        C446   1.421       .  A
C445        C450   1.409       .  A
C446        C447   1.404       .  A
C446        N451   1.439       .  S
C447        H452   1.084       .  S
C447        C448   1.398       .  A
C448        C453   1.489       .  S
C448        C449   1.411       .  A
C449        C450   1.414       .  A
C449        N454   1.437       .  S
C450        H455   1.083       .  S
N451        H471   1.046       .  S
N451        H472   1.046       .  S
C453        C456   1.400       .  A
C453        C460   1.410       .  A
N454        H469   1.046       .  S
N454        H470   1.046       .  S
C456        H461   1.084       .  S
C456        C457   1.409       .  A
C457        C458   1.421       .  A
C457        N462   1.438       .  S
C458        C459   1.407       .  A
C459        H463   1.083       .  S
C459        C460   1.408       .  A
C460        N464   1.438       .  S
N462        H465   1.045       .  S
N462        H466   1.046       .  S
N464        H467   1.046       .  S
N464        H468   1.046       .  S
C473        C474   1.415       .  A
C473        C478   1.407   1_556  A
C474        C475   1.403       .  A
C474        N479   1.438       .  S
C475        H480   1.084   1_545  S
C475        C476   1.401   1_556  A
C476       C1009   1.476   1_445  S
C476       C1005   1.407       .  A
C477       C1004   1.407       .  A
C477       C1006   1.403       .  A
C477        N482   1.438       .  S
C478       H1011   1.084       .  S
C478       C1005   1.403       .  A
N479        H499   1.046       .  S
N479        H500   1.046       .  S
C481       C1004   1.476   1_565  S
C481        C484   1.402       .  A
C481       C1016   1.407   1_554  A
N482        H497   1.046       .  S
N482        H498   1.046       .  S
H483       C1006   1.084       .  S
C484        H489   1.084       .  S
C484        C485   1.406       .  A
C485        C486   1.413       .  A
C485        N490   1.438       .  S
C486        C487   1.404   1_554  A
C487        H491   1.084       .  S
C487       C1016   1.401       .  A
C488       C1009   1.407   1_556  A
C488       C1015   1.401       .  A
C488        N492   1.438       .  S
N490        H493   1.046       .  S
N490        H494   1.045       .  S
N492        H495   1.045       .  S
N492        H496   1.046   1_565  S
C501        C502   1.414       .  A
C501        C506   1.402   1_556  A
C502        C503   1.399       .  A
C502        N507   1.439       .  S
C503        H508   1.084       .  S
C503        C504   1.398       .  A
C504        C509   1.471       .  S
C504        C505   1.409   1_556  A
C505        C506   1.402       .  A
C505        N510   1.438       .  S
C506        H511   1.084       .  S
N507        H527   1.045       .  S
N507        H528   1.046       .  S
C509        C512   1.398   1_556  A
C509        C516   1.406       .  A
N510        H525   1.046       .  S
N510        H526   1.046       .  S
C512        H517   1.084       .  S
C512        C513   1.401       .  A
C513        C514   1.419       .  A
C513        N518   1.438       .  S
C514        C515   1.407   1_554  A
C515        H519   1.083       .  S
C515        C516   1.400       .  A
C516        N520   1.438       .  S
N518        H521   1.046       .  S
N518        H522   1.045       .  S
N520        H523   1.046       .  S
N520        H524   1.046       .  S
O529       Mg531   2.140   1_554  S
O529       Mg537   2.139       .  S
O529        C564   1.236       .  S
C530        O543   1.238       .  S
C530        O567   1.270       .  A
C530        H569   1.081       .  S
Mg531       O560   2.148       .  S
Mg531       O575   2.288       .  S
Mg531       O571   2.248       .  S
Mg531       O542   2.286       .  S
O532       Mg574   2.145       .  S
O532       Mg557   2.140       .  S
O532        C553   1.240       .  S
O533        C564   1.270       .  A
O533       Mg557   2.301       .  S
C534        O536   1.277       .  A
C534        O548   1.278       .  A
C534        C902   1.487       .  S
O535        C563   1.273   1_554  A
O535       Mg537   2.307       .  S
O536       Mg568   2.285       .  S
Mg537       O543   2.115       .  S
Mg537       O551   2.232       .  S
Mg537       O539   2.301       .  S
C538        O576   1.272       .  A
C538        O544   1.272   1_556  A
C538       C1001   1.480       .  S
O539        C546   1.274       .  A
H540        C553   1.081       .  S
C541        O555   1.237       .  S
C541        O556   1.270       .  A
C541        H566   1.081       .  S
O542        C565   1.269       .  A
O543       Mg557   2.151       .  S
O544       Mg574   2.277       .  S
C545        O558   1.273       .  A
C545        O550   1.278       .  A
C545        C917   1.497       .  S
C546        O573   1.277       .  A
C546        C986   1.497       .  S
Mg547       O554   2.115       .  S
Mg547       O555   2.143       .  S
Mg547       O548   2.319       .  S
Mg547       O549   2.304       .  S
Mg547       O576   2.261       .  S
O549        C553   1.273   1_556  A
O550       Mg557   2.329       .  S
O551        C570   1.266       .  A
O552        C572   1.280       .  A
O552       Mg568   2.336       .  S
O554       Mg568   2.147       .  S
O554        C565   1.236       .  S
O555       Mg574   2.140   1_556  S
O556       Mg568   2.298       .  S
Mg557       O573   2.296       .  S
O558       Mg574   2.259       .  S
H559        C564   1.081       .  S
O560       Mg568   2.145       .  S
O560        C563   1.239       .  S
H561        C563   1.081       .  S
H562        C565   1.081       .  S
O567       Mg574   2.290       .  S
C570        O575   1.273   1_554  A
C570       C1042   1.481       .  S
O571        C572   1.271       .  A
C572        C945   1.492       .  S
O577       Mg579   2.132   1_554  S
O577       Mg585   2.138       .  S
O577        C612   1.238       .  S
C578        O591   1.237       .  S
C578        O615   1.270       .  A
C578        H617   1.081       .  S
Mg579       O608   2.138       .  S
Mg579       O623   2.288       .  S
Mg579       O619   2.242       .  S
Mg579       O590   2.294       .  S
O580       Mg622   2.141       .  S
O580       Mg605   2.125       .  S
O580        C601   1.239       .  S
O581        C612   1.272       .  A
O581       Mg605   2.305       .  S
C582        O584   1.274       .  A
C582        O596   1.273       .  A
C582        C833   1.486       .  S
O583        C611   1.272   1_554  A
O583       Mg585   2.302       .  S
O584       Mg616   2.267       .  S
Mg585       O591   2.124       .  S
Mg585       O599   2.261       .  S
Mg585       O587   2.293       .  S
C586        O624   1.269       .  A
C586        O592   1.275   1_556  A
C586       C1029   1.469       .  S
O587        C594   1.275       .  A
H588        C601   1.081       .  S
C589        O603   1.237       .  S
C589        O604   1.271       .  A
C589        H614   1.081       .  S
O590        C613   1.270       .  A
O591       Mg605   2.141       .  S
O592       Mg622   2.296       .  S
C593        O606   1.275       .  A
C593        O598   1.278       .  A
C593        C861   1.501       .  S
C594        O621   1.272       .  A
C594        C818   1.483       .  S
Mg595       O602   2.120       .  S
Mg595       O603   2.144       .  S
Mg595       O596   2.294       .  S
Mg595       O597   2.295       .  S
Mg595       O624   2.233       .  S
O597        C601   1.272   1_556  A
O598       Mg605   2.330       .  S
O599        C618   1.270       .  A
O600        C620   1.278       .  A
O600       Mg616   2.330       .  S
O602       Mg616   2.145       .  S
O602        C613   1.237       .  S
O603       Mg622   2.137   1_556  S
O604       Mg616   2.300       .  S
Mg605       O621   2.259       .  S
O606       Mg622   2.273       .  S
H607        C612   1.081       .  S
O608       Mg616   2.130       .  S
O608        C611   1.238       .  S
H609        C611   1.081       .  S
H610        C613   1.081       .  S
O615       Mg622   2.292       .  S
C618        O623   1.272   1_554  A
C618       C1014   1.476       .  S
O619        C620   1.269       .  A
C620        C777   1.482       .  S
O625       Mg627   2.136       .  S
O625       Mg633   2.151       .  S
O625        C660   1.239       .  S
C626        O639   1.237       .  S
C626        O663   1.271       .  A
C626        H665   1.081       .  S
Mg627       O656   2.142       .  S
Mg627       O671   2.284       .  S
Mg627       O667   2.251       .  S
Mg627       O638   2.291       .  S
O628       Mg670   2.137       .  S
O628       Mg653   2.149       .  S
O628        C649   1.240       .  S
O629        C660   1.273       .  A
O629       Mg653   2.306       .  S
C630        O632   1.275       .  A
C630        O644   1.278       .  A
C630        C958   1.492       .  S
O631        C659   1.272       .  A
O631       Mg633   2.295       .  S
O632       Mg664   2.280       .  S
Mg633       O639   2.126       .  S
Mg633       O647   2.263       .  S
Mg633       O635   2.312       .  S
C634        O672   1.270       .  A
C634        O640   1.277       .  A
C634        C749   1.477       .  S
O635        C642   1.277       .  A
H636        C649   1.081       .  S
C637        O651   1.238       .  S
C637        O652   1.272       .  A
C637        H662   1.081       .  S
O638        C661   1.270       .  A
O639       Mg653   2.133       .  S
O640       Mg670   2.318       .  S
C641        O654   1.273       .  A
C641        O646   1.281       .  A
C641        C973   1.496       .  S
C642        O669   1.275       .  A
C642        C930   1.498       .  S
Mg643       O650   2.117       .  S
Mg643       O651   2.142       .  S
Mg643       O644   2.321       .  S
Mg643       O645   2.310       .  S
Mg643       O672   2.239       .  S
O645        C649   1.274       .  A
O646       Mg653   2.351       .  S
O647        C666   1.272       .  A
O648        C668   1.279       .  A
O648       Mg664   2.336       .  S
O650       Mg664   2.138       .  S
O650        C661   1.237       .  S
O651       Mg670   2.142       .  S
O652       Mg664   2.303       .  S
Mg653       O669   2.281       .  S
O654       Mg670   2.258       .  S
H655        C660   1.081       .  S
O656       Mg664   2.134       .  S
O656        C659   1.239       .  S
H657        C659   1.081       .  S
H658        C661   1.081       .  S
O663       Mg670   2.302       .  S
C666        O671   1.272       .  A
C666        C734   1.471       .  S
O667        C668   1.273       .  A
C668        C889   1.497       .  S
O673       Mg675   2.137       .  S
O673       Mg681   2.150       .  S
O673        C708   1.236       .  S
C674        O687   1.237       .  S
C674        O711   1.271       .  A
C674        H713   1.081       .  S
Mg675       O704   2.150       .  S
Mg675       O719   2.255       .  S
Mg675       O715   2.240       .  S
Mg675       O686   2.288       .  S
O676       Mg718   2.142       .  S
O676       Mg701   2.139       .  S
O676        C697   1.239       .  S
O677        C708   1.270       .  A
O677       Mg701   2.298       .  S
C678        O680   1.274       .  A
C678        O692   1.278       .  A
C678        C790   1.490       .  S
O679        C707   1.272       .  A
O679       Mg681   2.302       .  S
O680       Mg712   2.270       .  S
Mg681       O687   2.135       .  S
Mg681       O695   2.280       .  S
Mg681       O683   2.319       .  S
C682        O720   1.272       .  A
C682        O688   1.272       .  A
C682        C721   1.477       .  S
O683        C690   1.279       .  A
H684        C697   1.081       .  S
C685        O699   1.236       .  S
C685        O700   1.271       .  A
C685        H710   1.081       .  S
O686        C709   1.269       .  A
O687       Mg701   2.148       .  S
O688       Mg718   2.277       .  S
C689        O702   1.272       .  A
C689        O694   1.278       .  A
C689        C805   1.492       .  S
C690        O717   1.275       .  A
C690        C874   1.499       .  S
Mg691       O698   2.129       .  S
Mg691       O699   2.145       .  S
Mg691       O692   2.311       .  S
Mg691       O693   2.308       .  S
Mg691       O720   2.272       .  S
O693        C697   1.274       .  A
O694       Mg701   2.326       .  S
O695        C714   1.274       .  A
O696        C716   1.278       .  A
O696       Mg712   2.330       .  S
O698       Mg712   2.149       .  S
O698        C709   1.236       .  S
O699       Mg718   2.141       .  S
O700       Mg712   2.302       .  S
Mg701       O717   2.278       .  S
O702       Mg718   2.256       .  S
H703        C708   1.081       .  S
O704       Mg712   2.132       .  S
O704        C707   1.239       .  S
H705        C707   1.081       .  S
H706        C709   1.081       .  S
O711       Mg718   2.295       .  S
C714        O719   1.267       .  A
C714        C762   1.481       .  S
O715        C716   1.269       .  A
C716        C846   1.486       .  S
C721        C722   1.416       .  A
C721        C726   1.404       .  A
C722        C723   1.402       .  A
C722        N727   1.439       .  S
C723        H728   1.084       .  S
C723        C724   1.398       .  A
C724        C725   1.409       .  A
C725        C726   1.406       .  A
C726        H731   1.084       .  S
N727        H747   1.046       .  S
N727        H748   1.046       .  S
C729        C732   1.401       .  A
N730        H745   1.046       .  S
N730        H746   1.044       .  S
C732        H737   1.084   1_545  S
C732        C733   1.405       .  A
C733        C734   1.412       .  A
C733        N738   1.438       .  S
C734        C735   1.402       .  A
C736        N740   1.438       .  S
N738        H741   1.046       .  S
N738        H742   1.046       .  S
N740        H743   1.046       .  S
N740        H744   1.044       .  S
C749        C750   1.409       .  A
C749        C754   1.407       .  A
C750        C751   1.404       .  A
C750        N755   1.437       .  S
C751        H756   1.084       .  S
C751        C752   1.404       .  A
C752        C757   1.480       .  S
C752        C753   1.408       .  A
C753        C754   1.404       .  A
C753        N758   1.438       .  S
C754        H759   1.084       .  S
N755        H775   1.046       .  S
N755        H776   1.046       .  S
C757        C760   1.400       .  A
C757        C764   1.408       .  A
N758        H773   1.046       .  S
N758        H774   1.046       .  S
C760        H765   1.084       .  S
C760        C761   1.405       .  A
C761        C762   1.420       .  A
C761        N766   1.439       .  S
C762        C763   1.403       .  A
C763        H767   1.084       .  S
C763        C764   1.402       .  A
C764        N768   1.437       .  S
N766        H769   1.046       .  S
N766        H770   1.046       .  S
N768        H771   1.046       .  S
N768        H772   1.046       .  S
C777        C778   1.416       .  A
C777        C782   1.405       .  A
C778        C779   1.405       .  A
C778        N783   1.439       .  S
C779        H784   1.084   1_655  S
C779        C780   1.399       .  A
C780        C781   1.410       .  A
C781        C782   1.407       .  A
C782        H787   1.084       .  S
N783        H803   1.045       .  S
N783        H804   1.046       .  S
C785        C788   1.401       .  A
C785        C792   1.407       .  A
N786        H801   1.046       .  S
N786        H802   1.044       .  S
C788        H793   1.084       .  S
C788        C789   1.408       .  A
C789        C790   1.417       .  A
C789        N794   1.438       .  S
C790        C791   1.408       .  A
C791        H795   1.083       .  S
C791        C792   1.405       .  A
N794        H797   1.046       .  S
N794        H798   1.046       .  S
N796        H799   1.046       .  S
N796        H800   1.044       .  S
C805        C806   1.418       .  A
C805        C810   1.410       .  A
C806        C807   1.408       .  A
C806        N811   1.438       .  S
C807        H812   1.084       .  S
C807        C808   1.401       .  A
C808        C809   1.405       .  A
C809        C810   1.403       .  A
C810        H815   1.083       .  S
N811        H831   1.046       .  S
N811        H832   1.046       .  S
C813        C816   1.401       .  A
C813        C820   1.407       .  A
N814        H829   1.046       .  S
N814        H830   1.046       .  S
C816        H821   1.084       .  S
C816        C817   1.405       .  A
C817        C818   1.416       .  A
C817        N822   1.438       .  S
C818        C819   1.406       .  A
C819        H823   1.084       .  S
C819        C820   1.403       .  A
C820        N824   1.438       .  S
N822        H825   1.046       .  S
N822        H826   1.046       .  S
N824        H827   1.046       .  S
C833        C834   1.418       .  A
C833        C838   1.406       .  A
C834        C835   1.407       .  A
C834        N839   1.438       .  S
C835        H840   1.084       .  S
C835        C836   1.401       .  A
C836        C841   1.481       .  S
C836        C837   1.408       .  A
C837        C838   1.403       .  A
C837        N842   1.438       .  S
C838        H843   1.083       .  S
N839        H859   1.045       .  S
N839        H860   1.046       .  S
C841        C844   1.402       .  A
C841        C848   1.407       .  A
N842        H857   1.046       .  S
N842        H858   1.045       .  S
C844        H849   1.084       .  S
C844        C845   1.406       .  A
C845        C846   1.414       .  A
C845        N850   1.437       .  S
C846        C847   1.409       .  A
C847        H851   1.084       .  S
C847        C848   1.405       .  A
C848        N852   1.438       .  S
N850        H853   1.046       .  S
N850        H854   1.045       .  S
N852        H855   1.046       .  S
N852        H856   1.046       .  S
C861        C862   1.421       .  A
C861        C866   1.409       .  A
C862        C863   1.412       .  A
C862        N867   1.438       .  S
C863        H868   1.084       .  S
C863        C864   1.405       .  A
C864        C869   1.494       .  S
C864        C865   1.409       .  A
C865        C866   1.405       .  A
C865        N870   1.438       .  S
C866        H871   1.083       .  S
N867        H887   1.046       .  S
N867        H888   1.046       .  S
C869        C872   1.404       .  A
C869        C876   1.409       .  A
N870        H885   1.045       .  S
N870        H886   1.046       .  S
C872        H877   1.084       .  S
C872        C873   1.409       .  A
C873        C874   1.420       .  A
C873        N878   1.438       .  S
C874        C875   1.410       .  A
C875        H879   1.083       .  S
C875        C876   1.407       .  A
C876        N880   1.438       .  S
N878        H881   1.046       .  S
N878        H882   1.045       .  S
N880        H883   1.046       .  S
N880        H884   1.046       .  S
C889        C890   1.418       .  A
C889        C894   1.410       .  A
C890        C891   1.411       .  A
C890        N895   1.438       .  S
C891        C892   1.404       .  A
C892        C893   1.407       .  A
C893        C894   1.403       .  A
C893        N898   1.438   1_655  S
C894        H899   1.083       .  S
N895        H915   1.046       .  S
N895        H916   1.046       .  S
C897        C900   1.402       .  A
C897        C904   1.410       .  A
N898        H913   1.046       .  S
N898        H914   1.046       .  S
C900        C901   1.407       .  A
C901        C902   1.415       .  A
C901        N906   1.438       .  S
C902        C903   1.407       .  A
C903        H907   1.084       .  S
C903        C904   1.409       .  A
C904        N908   1.438       .  S
N906        H910   1.045       .  S
N908        H911   1.046       .  S
N908        H912   1.046       .  S
C917        C918   1.419       .  A
C917        C922   1.411       .  A
C918        C919   1.410       .  A
C918        N923   1.438       .  S
C919        H924   1.084       .  S
C919        C920   1.401       .  A
C920        C921   1.406       .  A
C921        C922   1.405       .  A
C922        H927   1.083       .  S
N923        H943   1.046       .  S
N923        H944   1.046       .  S
C925        C928   1.400       .  A
C925        C932   1.406       .  A
N926        H941   1.046       .  S
N926        H942   1.046       .  S
C928        H933   1.084       .  S
C928        C929   1.407       .  A
C929        C930   1.420       .  A
C929        N934   1.438       .  S
C930        C931   1.412       .  A
C931        H935   1.083       .  S
C931        C932   1.408       .  A
N934        H937   1.046       .  S
N934        H938   1.046       .  S
N936        H939   1.046       .  S
N936        H940   1.046       .  S
C945        C946   1.416       .  A
C945        C950   1.408       .  A
C946        C947   1.402       .  A
C946        N951   1.433       .  S
C947        H952   1.084       .  S
C947        C948   1.399       .  A
C948        C953   1.486       .  S
C948        C949   1.411       .  A
C949        C950   1.411       .  A
C949        N954   1.437       .  S
C950        H955   1.083       .  S
N951        H971   1.046       .  S
N951        H972   1.046       .  S
C953        C956   1.401       .  A
C953        C960   1.409       .  A
N954        H969   1.046       .  S
N954        H970   1.046       .  S
C956        H961   1.084       .  S
C956        C957   1.409       .  A
C957        C958   1.418       .  A
C957        N962   1.438       .  S
C958        C959   1.407       .  A
C959        H963   1.083       .  S
C959        C960   1.408       .  A
C960        N964   1.438       .  S
N962        H965   1.046       .  S
N962        H966   1.046       .  S
N964        H967   1.045       .  S
N964        H968   1.046       .  S
C973        C974   1.421       .  A
C973        C978   1.409       .  A
C974        C975   1.404       .  A
C974        N979   1.439       .  S
C975        H980   1.084       .  S
C975        C976   1.398       .  A
C976        C981   1.489       .  S
C976        C977   1.411       .  A
C977        C978   1.414       .  A
C977        N982   1.437       .  S
C978        H983   1.083       .  S
N979        H999   1.046       .  S
N979       H1000   1.046       .  S
C981        C984   1.400       .  A
C981        C988   1.410       .  A
N982        H997   1.046       .  S
N982        H998   1.046       .  S
C984        H989   1.084       .  S
C984        C985   1.409       .  A
C985        C986   1.422       .  A
C985        N990   1.438       .  S
C986        C987   1.407       .  A
C987        H991   1.083       .  S
C987        C988   1.408       .  A
C988        N992   1.438       .  S
N990        H993   1.045       .  S
N990        H994   1.046       .  S
N992        H995   1.046       .  S
N992        H996   1.046       .  S
C1001      C1002   1.415       .  A
C1001      C1006   1.407   1_556  A
C1002      C1003   1.403       .  A
C1002      N1007   1.438       .  S
C1003      H1008   1.084   1_545  S
C1003      C1004   1.401   1_556  A
C1005      N1010   1.438   1_455  S
N1007      H1027   1.046       .  S
N1007      H1028   1.046       .  S
C1009      C1012   1.402       .  A
N1010      H1025   1.046       .  S
N1010      H1026   1.046       .  S
C1012      H1017   1.084   1_655  S
C1012      C1013   1.406       .  A
C1013      C1014   1.413       .  A
C1013      N1018   1.438       .  S
C1014      C1015   1.404   1_554  A
C1015      H1019   1.084       .  S
C1016      N1020   1.438       .  S
N1018      H1021   1.046   1_655  S
N1018      H1022   1.045       .  S
N1020      H1023   1.045       .  S
N1020      H1024   1.046   1_565  S
C1029      C1030   1.414       .  A
C1029      C1034   1.402   1_556  A
C1030      C1031   1.399       .  A
C1030      N1035   1.439       .  S
C1031      H1036   1.084       .  S
C1031      C1032   1.398       .  A
C1032      C1037   1.471       .  S
C1032      C1033   1.409   1_556  A
C1033      C1034   1.402       .  A
C1033      N1038   1.438       .  S
C1034      H1039   1.084       .  S
N1035      H1055   1.045       .  S
N1035      H1056   1.046       .  S
C1037      C1040   1.398   1_556  A
C1037      C1044   1.406       .  A
N1038      H1053   1.046       .  S
N1038      H1054   1.046       .  S
C1040      H1045   1.084       .  S
C1040      C1041   1.401       .  A
C1041      C1042   1.419       .  A
C1041      N1046   1.438       .  S
C1042      C1043   1.407   1_554  A
C1043      H1047   1.083       .  S
C1043      C1044   1.400       .  A
C1044      N1048   1.438       .  S
N1046      H1049   1.046       .  S
N1046      H1050   1.045       .  S
N1048      H1051   1.046       .  S
N1048      H1052   1.046       .  S
