geometry optimzed in LAMMPS
_audit_creation_date              2020-11-30 
_audit_creation_method            'lammps2cif' 
_symmetry_space_group_name_H-M    'P1' 
_symmetry_Int_Tables_number       1 
_symmetry_cell_setting            triclinic 
loop_ 
_symmetry_equiv_pos_as_xyz 
  x,y,z 
_cell_length_a                    41.74052441 
_cell_length_b                    41.76590394276025 
_cell_length_c                    25.909032178371714 
_cell_angle_alpha                 90.32602878967579 
_cell_angle_beta                  90.0792758216024 
_cell_angle_gamma                 90.1345263578499 
loop_ 
_atom_site_label 
_atom_site_type_symbol 
_atom_site_fract_x 
_atom_site_fract_y 
_atom_site_fract_z 
_atom_site_charge 
C1          C  0.87526956  0.36660124  0.05557327     0.32000
C2          C  0.87713573  0.36434905  0.94928608     0.32000
C3          C  0.84453077  0.37729812  0.02730982    -0.04200
C4          C  0.90051676  0.38837526  0.02945108    -0.05000
C5          C  0.88189589  0.33368523  0.03109544    -0.04900
C6          C  0.84504350  0.37521033  0.97357095    -0.04200
C7          C  0.90165800  0.38655292  0.97575492    -0.05000
C8          C  0.88225447  0.33222655  0.97728668    -0.04900
C9          C  0.81483031  0.38389653  0.95648853    -0.30300
N10         N  0.79696755  0.39280418  0.99788905     0.16200
C11         C  0.81497804  0.38938800  0.04097714    -0.30300
H12         H  0.80704028  0.39574251  0.07958933     0.18200
C13         C  0.92504232  0.40743127  0.95927622    -0.29300
N14         N  0.93776861  0.42280400  0.00099302     0.14900
C15         C  0.92222491  0.41195468  0.04373468    -0.29300
C16         C  0.88521850  0.30026136  0.96421382    -0.29600
N17         N  0.88863484  0.28289636  0.00799593     0.15400
H18         H  0.88493672  0.29006113  0.92576143     0.18100
C19         C  0.88642174  0.30305007  0.04914541    -0.29600
H20         H  0.88768720  0.29588688  0.08916388     0.18100
H21         H  0.92576821  0.42133637  0.08228098     0.18100
H22         H  0.80629460  0.38370978  0.91721801     0.18200
H23         H  0.93242074  0.41074466  0.91965597     0.18100
C24         C  0.86427850  0.37281640  0.44943029     0.32000
C25         C  0.86587014  0.37339595  0.55576818     0.32000
C26         C  0.87644240  0.34209556  0.47557734    -0.04200
C27         C  0.88653696  0.39808513  0.47489355    -0.05000
C28         C  0.83217414  0.37879904  0.47666756    -0.04900
C29         C  0.87707614  0.34252250  0.52911845    -0.04200
C30         C  0.88632794  0.39912398  0.52876847    -0.05000
C31         C  0.83278577  0.37954809  0.53057150    -0.04900
C32         C  0.89029806  0.31408637  0.54507635    -0.30300
N33         N  0.89742175  0.29596787  0.50283242     0.16200
C34         C  0.88950935  0.31326716  0.46032866    -0.30300
H35         H  0.89268066  0.30537935  0.42092519     0.18200
C36         C  0.90650692  0.42364346  0.54374506    -0.29300
N37         N  0.92070779  0.43599813  0.50112206     0.14900
C38         C  0.90933823  0.41992127  0.45919170    -0.29300
C39         C  0.80327135  0.39123024  0.54589326    -0.29600
N40         N  0.78451240  0.39563794  0.50354740     0.15400
H41         H  0.79613948  0.39699968  0.58492765     0.18100
C42         C  0.80219253  0.38848339  0.46104541    -0.29600
H43         H  0.79438922  0.39167462  0.42156028     0.18100
H44         H  0.91792004  0.42324650  0.42024023     0.18100
H45         H  0.89513786  0.30766467  0.58467086     0.18200
H46         H  0.91048429  0.43193914  0.58285761     0.18100
C47         C  0.35972682  0.14524236  0.07398619     0.32000
C48         C  0.35769330  0.14578440  0.96793278     0.32000
C49         C  0.36487039  0.17801309  0.04838788    -0.04200
C50         C  0.38440091  0.12377095  0.04623954    -0.05000
C51         C  0.32844700  0.13312989  0.04888698    -0.04900
C52         C  0.36447071  0.17834911  0.99431680    -0.04200
C53         C  0.38405514  0.12480398  0.99241521    -0.05000
C54         C  0.32721725  0.13430053  0.99544755    -0.04900
C55         C  0.38111331  0.20559024  0.97995591    -0.30300
N56         N  0.38904401  0.22267164  0.02282219     0.16200
C57         C  0.37987666  0.20571977  0.06475197    -0.30300
H58         H  0.38608819  0.21182517  0.10419441     0.18200
C59         C  0.40671397  0.10322063  0.97522871    -0.29300
N60         N  0.41898536  0.08764033  0.01653924     0.14900
C61         C  0.40520690  0.09962920  0.05989500    -0.29300
C62         C  0.29736485  0.12352883  0.98058891    -0.29600
N63         N  0.28069007  0.11449704  0.02332204     0.15400
H64         H  0.28846611  0.12307857  0.94139387     0.18100
C65         C  0.30010327  0.11935292  0.06491380    -0.29600
H66         H  0.29441923  0.11267537  0.10407615     0.18100
H67         H  0.40938268  0.09064354  0.09838603     0.18100
H68         H  0.38842461  0.21180522  0.94124966     0.18200
H69         H  0.41271656  0.09788402  0.93550855     0.18100
C70         C  0.35628965  0.14850742  0.57423606     0.32000
C71         C  0.35569629  0.15158783  0.46814990     0.32000
C72         C  0.36669237  0.18098859  0.55058097    -0.04200
C73         C  0.37730905  0.12420266  0.54558175    -0.05000
C74         C  0.32318195  0.14389163  0.54783010    -0.04900
C75         C  0.36600377  0.18241775  0.49670105    -0.04200
C76         C  0.37699082  0.12597975  0.49221328    -0.05000
C77         C  0.32298401  0.14544715  0.49388987    -0.04900
C78         C  0.36950934  0.21411956  0.48353779    -0.30300
N79         N  0.37530188  0.23171538  0.52668597     0.16200
C80         C  0.37208730  0.21200791  0.56797546    -0.30300
H81         H  0.37337976  0.21978582  0.60772844     0.18200
C82         C  0.39704410  0.10258334  0.47367121    -0.29300
N83         N  0.40958935  0.08651493  0.51430783     0.14900
C84         C  0.39759909  0.09943494  0.55856041    -0.29300
C85         C  0.29173307  0.14097044  0.47793369    -0.29600
N86         N  0.27322268  0.13578253  0.52005838     0.15400
H87         H  0.28313863  0.14017471  0.43853568     0.18100
C88         C  0.29189209  0.13841700  0.56284419    -0.29600
H89         H  0.28317426  0.13580404  0.60188651     0.18100
H90         H  0.40366392  0.09180545  0.59720425     0.18100
H91         H  0.36714600  0.22400118  0.44523553     0.18200
H92         H  0.40208617  0.09752006  0.43347789     0.18100
C93         C  0.64784700  0.85878299  0.03472340     0.32000
C94         C  0.64145974  0.86166530  0.92911975     0.32000
C95         C  0.63524064  0.82799732  0.00785594    -0.04200
C96         C  0.62527935  0.88459545  0.01376621    -0.05000
C97         C  0.67904360  0.86457724  0.00406159    -0.04900
C98         C  0.63079718  0.82996390  0.95449293    -0.04200
C99         C  0.62153005  0.88592120  0.96041683    -0.05000
C100        C  0.67543877  0.86663484  0.95069708    -0.04900
C101        C  0.61676077  0.80153431  0.93872325    -0.30300
N102        N  0.61500062  0.78167740  0.97980554     0.16200
C103        C  0.62677067  0.79721929  0.02189242    -0.30300
H104        H  0.62882717  0.78675680  0.05985679     0.18200
C105        C  0.59528340  0.90520707  0.95145543    -0.29300
N106        N  0.58442611  0.91682456  0.99728947     0.14900
C107        C  0.60242732  0.90411070  0.03559241    -0.29300
C108        C  0.70498248  0.87402058  0.93015255    -0.29600
N109        N  0.72666221  0.87551368  0.96918973     0.15400
H110        H  0.71020817  0.87867386  0.88997133     0.18100
C111        C  0.71133610  0.86888345  0.01412415    -0.29600
H112        H  0.72292469  0.86830270  0.05146409     0.18100
H113        H  0.59797448  0.90731243  0.07645328     0.18100
H114        H  0.60888218  0.79535294  0.90011741     0.18200
H115        H  0.58421499  0.90975582  0.91446235     0.18100
C116        C  0.64297409  0.86256486  0.53474219     0.32000
C117        C  0.64054869  0.86415983  0.42865574     0.32000
C118        C  0.63410210  0.83067169  0.50763276    -0.04200
C119        C  0.61916935  0.88625772  0.51098125    -0.05000
C120        C  0.67461667  0.87066504  0.50701408    -0.04900
C121        C  0.63186053  0.83173330  0.45388791    -0.04200
C122        C  0.61721696  0.88679002  0.45726479    -0.05000
C123        C  0.67304309  0.87223915  0.45348677    -0.04900
C124        C  0.62141259  0.80187318  0.43772439    -0.30300
N125        N  0.61935847  0.78230601  0.47929221     0.16200
C126        C  0.62760185  0.79951840  0.52192663    -0.30300
H127        H  0.62820274  0.79005018  0.56066970     0.18200
C128        C  0.59156330  0.90639594  0.44530045    -0.29300
N129        N  0.57955740  0.91883829  0.48978422     0.14900
C130        C  0.59613748  0.90665083  0.53010393    -0.29300
C131        C  0.70280168  0.88167570  0.43605363    -0.29600
N132        N  0.72267389  0.88510231  0.47735646     0.15400
H133        H  0.70901664  0.88702010  0.39648896     0.18100
C134        C  0.70598350  0.87705072  0.52039723    -0.29600
H135        H  0.71605611  0.87625949  0.55883644     0.18100
H136        H  0.59118290  0.91163065  0.57036569     0.18100
H137        H  0.61584567  0.79475692  0.39851211     0.18200
H138        H  0.58191356  0.91107030  0.40732661     0.18100
C139        C  0.16217313  0.65554288  0.94112235     0.32000
C140        C  0.16404702  0.65461248  0.04689675     0.32000
C141        C  0.15109138  0.68600102  0.96881926    -0.04200
C142        C  0.14203717  0.62899916  0.96713291    -0.05000
C143        C  0.19552400  0.64925059  0.96518197    -0.04900
C144        C  0.15211394  0.68554682  0.02213585    -0.04200
C145        C  0.14299051  0.62871668  0.02098176    -0.05000
C146        C  0.19647688  0.64857861  0.01963641    -0.04900
C147        C  0.14038611  0.71448410  0.03946244    -0.30300
N148        N  0.13215642  0.73242664  0.99791661     0.16200
C149        C  0.13869247  0.71520120  0.95450575    -0.30300
H150        H  0.13450366  0.72320645  0.91540885     0.18200
C151        C  0.12488973  0.60301175  0.03693938    -0.29300
N152        N  0.11253792  0.58795998  0.99477913     0.14900
C153        C  0.12342509  0.60313593  0.95191641    -0.29300
C154        C  0.22135789  0.62813180  0.03250692    -0.29600
N155        N  0.23655859  0.61825095  0.98918657     0.15400
H156        H  0.22691870  0.61959244  0.07080689     0.18100
C157        C  0.22015663  0.62966399  0.94821611    -0.29600
H158        H  0.22431448  0.62210976  0.90875924     0.18100
H159        H  0.11769087  0.59613033  0.91272237     0.18100
H160        H  0.13710294  0.72154420  0.07934759     0.18200
H161        H  0.12090024  0.59565832  0.07640541     0.18100
C162        C  0.15179217  0.66151876  0.54763445     0.32000
C163        C  0.15383063  0.65949463  0.44151311     0.32000
C164        C  0.18333471  0.65106849  0.52350494    -0.04200
C165        C  0.12733609  0.63908450  0.52119484    -0.05000
C166        C  0.14472495  0.69328931  0.51996688    -0.04900
C167        C  0.18455695  0.64989562  0.47001202    -0.04200
C168        C  0.12810777  0.63823407  0.46728177    -0.05000
C169        C  0.14573673  0.69227000  0.46588138    -0.04900
C170        C  0.21436560  0.63829533  0.45698761    -0.30300
N171        N  0.23092211  0.63253460  0.50127005     0.16200
C172        C  0.21215007  0.64047497  0.54201805    -0.30300
H173        H  0.21881887  0.63829108  0.58223323     0.18200
C174        C  0.10213717  0.62016967  0.45162722    -0.29300
N175        N  0.08688801  0.60861049  0.49394923     0.14900
C176        C  0.10162861  0.62078018  0.53650176    -0.29300
C177        C  0.12851123  0.71828702  0.44857790    -0.29600
N178        N  0.11845517  0.73556416  0.48982832     0.15400
H179        H  0.12291815  0.72379462  0.40882278     0.18100
C180        C  0.12682980  0.71977455  0.53325908    -0.29600
H181        H  0.11898164  0.72633846  0.57167450     0.18100
H182        H  0.09423670  0.61654631  0.57582127     0.18100
H183        H  0.22291839  0.63330589  0.41836620     0.18200
H184        H  0.09417815  0.61648356  0.41231878     0.18100
O185        O  0.97472616  0.04293608  0.04600765    -0.72500
O186        O  0.01829654  0.96237598  0.04803708    -0.72500
O187        O  0.03702213  0.02441441  0.05576638    -0.72600
O188        O  0.95644319  0.98075520  0.03787583    -0.72600
O189        O  0.96237749  0.98262392  0.95270608    -0.72500
O190        O  0.04213822  0.02719613  0.97036004    -0.72500
O191        O  0.02437955  0.96478173  0.96291468    -0.72500
O192        O  0.97989793  0.04500618  0.96070605    -0.72600
Ni193      Ni  0.99641246  0.00261276  0.04995578     1.25400
Ni194      Ni  0.00243192  0.00501391  0.95868568     1.25400
C195        C  0.96979693  0.05725821  0.00311695     0.89700
C196        C  0.02838367  0.95004666  0.00573017     0.89600
C197        C  0.05305743  0.03275147  0.01580139     0.89700
C198        C  0.94611306  0.97424398  0.99232027     0.89800
O199        O  0.01479225  0.96807366  0.52559795    -0.72500
O200        O  0.97925325  0.05224432  0.53101910    -0.72500
O201        O  0.95483408  0.99200040  0.52463371    -0.72600
O202        O  0.03903092  0.02815461  0.53204552    -0.72600
O203        O  0.04099693  0.03094035  0.44644016    -0.72500
O204        O  0.95619274  0.99449677  0.43879740    -0.72500
O205        O  0.98059139  0.05485181  0.44518114    -0.72500
O206        O  0.01673480  0.97033970  0.43986619    -0.72600
Ni207      Ni  0.99689558  0.01001599  0.53124949     1.25400
Ni208      Ni  0.99868414  0.01271826  0.43942770     1.25400
C209        C  0.02156421  0.95514479  0.48204582     0.89700
C210        C  0.97443243  0.06765481  0.48914684     0.89600
C211        C  0.94162691  0.98703286  0.48064617     0.89700
C212        C  0.05390382  0.03596867  0.49077125     0.89800
O213        O  0.46971050  0.51442991  0.04133744    -0.72500
O214        O  0.55718116  0.48488748  0.04369601    -0.72500
O215        O  0.52858183  0.54292345  0.03600863    -0.72600
O216        O  0.49847481  0.45647471  0.04965443    -0.72600
O217        O  0.49772447  0.45167401  0.96412325    -0.72500
O218        O  0.52765426  0.53817555  0.95048224    -0.72500
O219        O  0.55599913  0.48020392  0.95820800    -0.72500
O220        O  0.46918324  0.50937817  0.95590590    -0.72600
Ni221      Ni  0.51351704  0.49990430  0.04574788     1.25400
Ni222      Ni  0.51261358  0.49469317  0.95423153     1.25400
C223        C  0.45478717  0.51640808  0.99808309     0.89700
C224        C  0.57110205  0.47767155  0.00104062     0.89600
C225        C  0.53350328  0.55480686  0.99117621     0.89700
C226        C  0.49279866  0.43980871  0.00896880     0.89800
O227        O  0.54610976  0.48586741  0.55172282    -0.72500
O228        O  0.46329188  0.52562004  0.55477962    -0.72500
O229        O  0.48490442  0.46466298  0.55993292    -0.72600
O230        O  0.52445953  0.54705797  0.54720596    -0.72600
O231        O  0.52169701  0.54320158  0.46165515    -0.72500
O232        O  0.48130912  0.46109273  0.47419942    -0.72500
O233        O  0.46065440  0.52198648  0.46918764    -0.72500
O234        O  0.54289691  0.48209133  0.46604995    -0.72600
Ni235      Ni  0.50483803  0.50593387  0.55647341     1.25400
Ni236      Ni  0.50158581  0.50190582  0.46475785     1.25400
C237        C  0.55825585  0.47761462  0.50821062     0.89700
C238        C  0.44819466  0.53025744  0.51233496     0.89600
C239        C  0.47607241  0.44957782  0.51917392     0.89700
C240        C  0.52951508  0.55891658  0.50242976     0.89800
C241        C  0.31744769  0.61522497  0.47574449     0.14600
C242        C  0.32345473  0.59060149  0.51124404     0.01600
C243        C  0.29882644  0.58053493  0.54431668     0.16600
C244        C  0.26850139  0.59446273  0.54126471     0.26000
C245        C  0.26226983  0.61861541  0.50492701    -0.40400
C246        C  0.28706178  0.62901789  0.47245888     0.33000
C247        C  0.35506569  0.57470705  0.51228942     0.01600
F248        F  0.30383998  0.55649005  0.57843229    -0.12700
F249        F  0.28201918  0.65305042  0.43838826    -0.13200
C250        C  0.37333438  0.57385520  0.55781342     0.16600
C251        C  0.40347124  0.55925852  0.55813431     0.26000
C252        C  0.41595735  0.54528039  0.51272897    -0.40300
C253        C  0.39721279  0.54589324  0.46732830     0.32900
C254        C  0.36710492  0.56032896  0.46729339     0.14600
F255        F  0.36228128  0.58780177  0.60176336    -0.12700
F256        F  0.40771782  0.53229714  0.42274983    -0.13200
F257        F  0.42053016  0.55936778  0.60278362    -0.15500
F258        F  0.34940009  0.55986160  0.42326177    -0.14000
F259        F  0.34117630  0.62611721  0.44458808    -0.14000
F260        F  0.24489015  0.58349973  0.57255247    -0.15400
C261        C  0.10118031  0.82176207  0.51716798     0.14600
C262        C  0.07599177  0.82782369  0.48267648     0.01600
C263        C  0.06441379  0.80295391  0.45095907     0.16600
C264        C  0.07799882  0.77237513  0.45364053     0.26000
C265        C  0.10325728  0.76634621  0.48819413    -0.40400
C266        C  0.11464421  0.79128050  0.51999542     0.33000
C267        C  0.06131032  0.85994233  0.48124586     0.01600
F268        F  0.03956958  0.80818136  0.41822790    -0.12700
F269        F  0.13961155  0.78633535  0.55259664    -0.13200
C270        C  0.06445204  0.87943839  0.43758844     0.16600
C271        C  0.05143371  0.91034697  0.43740929     0.26000
C272        C  0.03497455  0.92219961  0.48104705    -0.40300
C273        C  0.03171867  0.90223291  0.52451169     0.32900
C274        C  0.04486871  0.87153586  0.52457171     0.14600
F275        F  0.08096498  0.86884477  0.39574581    -0.12700
F276        F  0.01547197  0.91216123  0.56702719    -0.13200
F277        F  0.05575612  0.92887753  0.39509434    -0.15500
F278        F  0.04141926  0.85293244  0.56703812    -0.14000
F279        F  0.11310459  0.84560243  0.54748572    -0.14000
F280        F  0.06603303  0.74849004  0.42350841    -0.15400
C281        C  0.12884059  0.65656876  0.80245812     0.14600
C282        C  0.15632387  0.66328968  0.77332778     0.01600
C283        C  0.18511634  0.67019145  0.79901296     0.16600
C284        C  0.18688861  0.66869592  0.85280855     0.26000
C285        C  0.16021260  0.65856660  0.88224639    -0.40400
C286        C  0.13053274  0.65519621  0.85638464     0.33000
C287        C  0.15504104  0.66312469  0.71619681     0.01600
F288        F  0.21174575  0.67818365  0.77187919    -0.12700
F289        F  0.10284819  0.65178100  0.88320033    -0.13200
C290        C  0.16296455  0.69062077  0.68807799     0.16600
C291        C  0.16281574  0.68994538  0.63410071     0.26000
C292        C  0.15301346  0.66213856  0.60680749    -0.40300
C293        C  0.14876675  0.63376225  0.63551853     0.32900
C294        C  0.14849170  0.63456533  0.68949254     0.14600
F295        F  0.17133021  0.71811283  0.71293378    -0.12700
F296        F  0.14700669  0.60479070  0.61174417    -0.13200
F297        F  0.17441438  0.71592409  0.60901593    -0.15500
F298        F  0.14329686  0.60702821  0.71584210    -0.14000
F299        F  0.10018070  0.65198028  0.77864061    -0.14000
F300        F  0.21434073  0.67889426  0.87570846    -0.15400
C301        C  0.17043442  0.68559031  0.30148432     0.14600
C302        C  0.16051844  0.65870132  0.27290951     0.01600
C303        C  0.15130501  0.63095205  0.29936700     0.16600
C304        C  0.15076159  0.63051426  0.35344558     0.26000
C305        C  0.15706191  0.65864107  0.38240194    -0.40400
C306        C  0.16946853  0.68532670  0.35547920     0.33000
C307        C  0.16137324  0.65890646  0.21560700     0.01600
F308        F  0.14393494  0.60382289  0.27271824    -0.12700
F309        F  0.18182135  0.71092255  0.38120997    -0.13200
C310        C  0.19025491  0.66420618  0.18934132     0.16600
C311        C  0.19120659  0.66380934  0.13535039     0.26000
C312        C  0.16348477  0.65635804  0.10610506    -0.40300
C313        C  0.13404634  0.65415038  0.13285025     0.32900
C314        C  0.13314894  0.65462420  0.18688379     0.14600
F315        F  0.21771001  0.66987731  0.21606708    -0.12700
F316        F  0.10585202  0.65263182  0.10676243    -0.13200
F317        F  0.21888192  0.67292658  0.11232072    -0.15500
F318        F  0.10450822  0.65176660  0.21123975    -0.14000
F319        F  0.18098424  0.71228478  0.27705754    -0.14000
F320        F  0.14609806  0.60198890  0.37701570    -0.15400
C321        C  0.37213334  0.54616377  0.03968451     0.14600
C322        C  0.35660632  0.55032273  0.99190687     0.01600
C323        C  0.37280475  0.54118640  0.94662229     0.16600
C324        C  0.40436978  0.52997881  0.94865245     0.26000
C325        C  0.42055994  0.52699307  0.99633151    -0.40400
C326        C  0.40358477  0.53442096  0.04193735     0.33000
C327        C  0.32459329  0.56616798  0.98888077     0.01600
F328        F  0.35805308  0.54326345  0.90000918    -0.12700
F329        F  0.41746561  0.53087226  0.08896378    -0.13200
C330        C  0.32026525  0.59290948  0.95670967     0.16600
C331        C  0.29093537  0.60903111  0.95536713     0.26000
C332        C  0.26540464  0.59934155  0.98699157    -0.40300
C333        C  0.26934563  0.57226806  0.01841768     0.32900
C334        C  0.29855652  0.55565858  0.01903207     0.14600
F335        F  0.34494550  0.60440834  0.92813505    -0.12700
F336        F  0.24475081  0.56167693  0.04801507    -0.13200
F337        F  0.28800993  0.63526501  0.92505437    -0.15500
F338        F  0.30130662  0.52918824  0.04886154    -0.14000
F339        F  0.35735430  0.55467675  0.08432520    -0.14000
F340        F  0.41905779  0.52245458  0.90347384    -0.15400
C341        C  0.07025677  0.87420273  0.96002418     0.14600
C342        C  0.07264697  0.85651474  0.00581346     0.01600
C343        C  0.06101060  0.86994746  0.05196697     0.16600
C344        C  0.04719555  0.90048503  0.05229089     0.26000
C345        C  0.04433775  0.91815891  0.00615868    -0.40400
C346        C  0.05619769  0.90453743  0.96005338     0.33000
C347        C  0.08745261  0.82418778  0.00504037     0.01600
F348        F  0.06232678  0.85317302  0.09666640    -0.12700
F349        F  0.05429721  0.92044601  0.91460998    -0.13200
C350        C  0.11381826  0.81722669  0.03690488     0.16600
C351        C  0.12862144  0.78719812  0.03432263     0.26000
C352        C  0.11732618  0.76354212  0.99989374    -0.40300
C353        C  0.09085962  0.77048503  0.96823547     0.32900
C354        C  0.07596632  0.80041884  0.97100228     0.14600
F355        F  0.12581568  0.83982698  0.06953065    -0.12700
F356        F  0.07882225  0.74794396  0.93559680    -0.13200
F357        F  0.15468763  0.78157272  0.06426099    -0.15500
F358        F  0.04991148  0.80603398  0.94096629    -0.14000
F359        F  0.08199076  0.86222899  0.91505441    -0.14000
F360        F  0.03631593  0.91242279  0.09785280    -0.15400
C361        C  0.56834660  0.63329394  0.44518746     0.14600
C362        C  0.57146050  0.65322988  0.48874280     0.01600
C363        C  0.56103047  0.64198828  0.53689215     0.16600
C364        C  0.54762908  0.61139241  0.54147581     0.26000
C365        C  0.54432260  0.59126407  0.49780717    -0.40400
C366        C  0.55497232  0.60266225  0.44957415     0.33000
C367        C  0.58501231  0.68597554  0.48395507     0.01600
F368        F  0.56305910  0.66103405  0.57943558    -0.12700
F369        F  0.55277125  0.58415592  0.40646024    -0.13200
C370        C  0.57041438  0.70851618  0.45147914     0.16600
C371        C  0.58217543  0.73988490  0.44889452     0.26000
C372        C  0.60870199  0.74939919  0.47898684    -0.40300
C373        C  0.62382551  0.72651917  0.51039752     0.32900
C374        C  0.61209178  0.69512594  0.51283034     0.14600
F375        F  0.54395006  0.70047213  0.42371615    -0.12700
F376        F  0.65027174  0.73444810  0.53823127    -0.13200
F377        F  0.56665282  0.76132830  0.41876050    -0.15500
F378        F  0.62729987  0.67353342  0.54318579    -0.14000
F379        F  0.57867177  0.64337082  0.39832574    -0.14000
F380        F  0.53734162  0.60187639  0.58867431    -0.15400
C381        C  0.80631864  0.90718305  0.43576358     0.14600
C382        C  0.81558538  0.92838519  0.47542486     0.01600
C383        C  0.79403424  0.93499307  0.51558686     0.16600
C384        C  0.76370126  0.92077416  0.51617015     0.26000
C385        C  0.75434102  0.89916063  0.47688551    -0.40400
C386        C  0.77602735  0.89253492  0.43660189     0.33000
C387        C  0.84793946  0.94317123  0.47585743     0.01600
F388        F  0.80217392  0.95583028  0.55386036    -0.12700
F389        F  0.76822262  0.87131586  0.39874663    -0.13200
C390        C  0.85711805  0.96496605  0.43744358     0.16600
C391        C  0.88756878  0.97927591  0.43873619     0.26000
C392        C  0.90933068  0.97204668  0.47861976    -0.40300
C393        C  0.89991026  0.95026439  0.51711355     0.32900
C394        C  0.86956075  0.93600471  0.51568361     0.14600
F395        F  0.83623807  0.97301167  0.39946555    -0.12700
F396        F  0.92036705  0.94213714  0.55564717    -0.13200
F397        F  0.89534645  0.00095547  0.40194565    -0.15500
F398        F  0.86136651  0.91478496  0.55295566    -0.14000
F399        F  0.82691214  0.90015518  0.39682756    -0.14000
F400        F  0.74307886  0.92913346  0.55435069    -0.15400
C401        C  0.64913751  0.83728891  0.78616165     0.14600
C402        C  0.64139986  0.86568360  0.76055011     0.01600
C403        C  0.63564311  0.89347706  0.78972873     0.16600
C404        C  0.63622165  0.89249692  0.84373612     0.26000
C405        C  0.64063887  0.86319620  0.86997605    -0.40400
C406        C  0.64986203  0.83631364  0.84003238     0.33000
C407        C  0.64080116  0.86627892  0.70339197     0.01600
F408        F  0.62976125  0.92174549  0.76592405    -0.12700
F409        F  0.66172935  0.80957496  0.86245149    -0.13200
C410        C  0.61912305  0.84685876  0.67612185     0.16600
C411        C  0.61909723  0.84645613  0.62214990     0.26000
C412        C  0.64237430  0.86375207  0.59399179    -0.40300
C413        C  0.66082069  0.88653087  0.62181041     0.32900
C414        C  0.66108055  0.88676337  0.67578972     0.14600
F415        F  0.59704833  0.82917753  0.70189100    -0.12700
F416        F  0.67657169  0.91045180  0.59737496    -0.13200
F417        F  0.59454049  0.83124894  0.59794402    -0.15500
F418        F  0.68102596  0.90726193  0.70106877    -0.14000
F419        F  0.65737001  0.81072328  0.75881367    -0.14000
F420        F  0.63495335  0.92072884  0.86970911    -0.15400
C421        C  0.65512473  0.83844254  0.28780582     0.14600
C422        C  0.64663178  0.86587676  0.26032974     0.01600
C423        C  0.63881139  0.89388269  0.28761005     0.16600
C424        C  0.63727658  0.89369127  0.34167610     0.26000
C425        C  0.64217719  0.86502048  0.36949498    -0.40400
C426        C  0.65447348  0.83851317  0.34166216     0.33000
C427        C  0.64675025  0.86501837  0.20325974     0.01600
F428        F  0.63288287  0.92149045  0.26190927    -0.12700
F429        F  0.66812404  0.81340941  0.36623327    -0.13200
C430        C  0.62416961  0.84625585  0.17691329     0.16600
C431        C  0.62432538  0.84460717  0.12305332     0.26000
C432        C  0.64875959  0.85969394  0.09400913    -0.40300
C433        C  0.66889412  0.88153487  0.12086547     0.32900
C434        C  0.66861375  0.88329701  0.17487495     0.14600
F435        F  0.60086089  0.83070605  0.20343514    -0.12700
F436        F  0.68673899  0.90344632  0.09531761    -0.13200
F437        F  0.59862154  0.83086305  0.09973106    -0.15500
F438        F  0.68932317  0.90336692  0.19943449    -0.14000
F439        F  0.66525868  0.81183195  0.26233534    -0.14000
F440        F  0.63349743  0.92211442  0.36640111    -0.15400
C441        C  0.57203354  0.63477542  0.02618735     0.14600
C442        C  0.57044078  0.65144469  0.97936353     0.01600
C443        C  0.55706934  0.63611756  0.93592691     0.16600
C444        C  0.54524615  0.60471394  0.93941329     0.26000
C445        C  0.54639109  0.58803601  0.98666400    -0.40400
C446        C  0.56024675  0.60349541  0.02986693     0.33000
C447        C  0.58229900  0.68497951  0.97661829     0.01600
F448        F  0.55573078  0.65148838  0.88993371    -0.12700
F449        F  0.56277059  0.58832794  0.07589353    -0.13200
C450        C  0.61436994  0.69223338  0.98891721     0.16600
C451        C  0.62497335  0.72405753  0.99023657     0.26000
C452        C  0.60391474  0.74909708  0.97840952    -0.40300
C453        C  0.57205567  0.74194226  0.96506010     0.32900
C454        C  0.56124551  0.71012140  0.96447898     0.14600
F455        F  0.63544982  0.66842567  0.99940115    -0.12700
F456        F  0.55122252  0.76591353  0.95437595    -0.13200
F457        F  0.65596310  0.73055281  0.00234069    -0.15500
F458        F  0.52997516  0.70391019  0.95383271    -0.14000
F459        F  0.58448520  0.64911727  0.06891610    -0.14000
F460        F  0.53232528  0.59090467  0.89660119    -0.15400
C461        C  0.81563768  0.88146662  0.98781469     0.14600
C462        C  0.82219265  0.91182655  0.96695277     0.01600
C463        C  0.79712733  0.92903797  0.94374412     0.16600
C464        C  0.76594568  0.91651495  0.94276829     0.26000
C465        C  0.75922824  0.88667496  0.96525324    -0.40400
C466        C  0.78438434  0.86911830  0.98727744     0.33000
C467        C  0.85452216  0.92650309  0.97277082     0.01600
F468        F  0.80251179  0.95873060  0.92447449    -0.12700
F469        F  0.77854070  0.84007059  0.00853396    -0.13200
C470        C  0.87226562  0.93615200  0.92949628     0.16600
C471        C  0.90213141  0.95120487  0.93560531     0.26000
C472        C  0.91491134  0.95707778  0.98537192    -0.40300
C473        C  0.89717658  0.94671117  0.02855220     0.32900
C474        C  0.86735658  0.93178852  0.02223710     0.14600
F475        F  0.86072400  0.93083109  0.88116633    -0.12700
F476        F  0.90841651  0.95115773  0.07726207    -0.13200
F477        F  0.91829799  0.96016892  0.89258203    -0.15500
F478        F  0.85048244  0.92329182  0.06480144    -0.14000
F479        F  0.83951005  0.86395698  0.00927126    -0.14000
F480        F  0.74189422  0.93438647  0.92268838    -0.15400
C481        C  0.45193662  0.00821493  0.53434856     0.14600
C482        C  0.47889672  0.01199355  0.50237044     0.01600
C483        C  0.48217967  0.04024234  0.47361970     0.16600
C484        C  0.45940317  0.06458540  0.47761244     0.26000
C485        C  0.43284148  0.06122415  0.51046235    -0.40400
C486        C  0.42917195  0.03275524  0.53861003     0.33000
C487        C  0.50445226  0.98734421  0.50043375     0.01600
F488        F  0.50755069  0.04423361  0.44153046    -0.12700
F489        F  0.40326969  0.02854351  0.56946568    -0.13200
C490        C  0.49798452  0.95607007  0.48269717     0.16600
C491        C  0.52271611  0.93346730  0.47920834     0.26000
C492        C  0.55408661  0.94175668  0.49370252    -0.40300
C493        C  0.56045652  0.97277741  0.51211649     0.32900
C494        C  0.53589034  0.99542388  0.51532975     0.14600
F495        F  0.46792548  0.94767676  0.46771079    -0.12700
F496        F  0.59070174  0.98124800  0.52589957    -0.13200
F497        F  0.51611516  0.90335991  0.46229230    -0.15500
F498        F  0.54272626  0.02529676  0.53322266    -0.14000
F499        F  0.44802376  0.98106610  0.56222809    -0.14000
F500        F  0.46378279  0.09193881  0.45045449    -0.15400
C501        C  0.42040232  0.30598810  0.48906332     0.14600
C502        C  0.41367542  0.32663272  0.53037992     0.01600
C503        C  0.39354066  0.31620208  0.57025803     0.16600
C504        C  0.38002456  0.28541782  0.56855629     0.26000
C505        C  0.38705756  0.26433907  0.52734723    -0.40400
C506        C  0.40755700  0.27513906  0.48768329     0.33000
C507        C  0.42783464  0.35906164  0.53099782     0.01600
F508        F  0.38671790  0.33599712  0.61048399    -0.12700
F509        F  0.41644179  0.25546112  0.44841907    -0.13200
C510        C  0.41780972  0.38172614  0.49464114     0.16600
C511        C  0.43335569  0.41130015  0.49114699     0.26000
C512        C  0.45918898  0.41866950  0.52406398    -0.40300
C513        C  0.46855600  0.39633858  0.56162686     0.32900
C514        C  0.45304886  0.36664677  0.56489359     0.14600
F515        F  0.39303457  0.37502707  0.46229335    -0.12700
F516        F  0.49354982  0.40274075  0.59369762    -0.13200
F517        F  0.42281682  0.43296396  0.45615587    -0.15500
F518        F  0.46339155  0.34483192  0.59977573    -0.14000
F519        F  0.44024937  0.31550337  0.45054475    -0.14000
F520        F  0.35966162  0.27656417  0.60667370    -0.15400
C521        C  0.12851509  0.07520624  0.54811949     0.14600
C522        C  0.14712305  0.08110782  0.50413078     0.01600
C523        C  0.13506017  0.07223564  0.45542230     0.16600
C524        C  0.10490360  0.05757086  0.45078181     0.26000
C525        C  0.08615737  0.05136944  0.49497741    -0.40400
C526        C  0.09846502  0.06055252  0.54373999     0.33000
C527        C  0.17935618  0.09593974  0.50939027     0.01600
F528        F  0.15284144  0.07717101  0.41233356    -0.12700
F529        F  0.08136693  0.05578177  0.58757847    -0.13200
C530        C  0.20325524  0.08072570  0.53858526     0.16600
C531        C  0.23377743  0.09434875  0.54320458     0.26000
C532        C  0.24103643  0.12340489  0.51864373    -0.40300
C533        C  0.21712675  0.13879352  0.48979953     0.32900
C534        C  0.18646212  0.12524421  0.48537669     0.14600
F535        F  0.19731164  0.05210381  0.56130152    -0.12700
F536        F  0.22348279  0.16708044  0.46638344    -0.13200
F537        F  0.25677384  0.07840014  0.56969497    -0.15500
F538        F  0.16357734  0.14086731  0.45812894    -0.14000
F539        F  0.13929486  0.08412960  0.59555526    -0.14000
F540        F  0.09432875  0.04925500  0.40296952    -0.15400
C541        C  0.49004031  0.03730542  0.98161095     0.14600
C542        C  0.48465507  0.00994721  0.01157437     0.01600
C543        C  0.45711520  0.00800202  0.04232563     0.16600
C544        C  0.43541681  0.03348315  0.04380108     0.26000
C545        C  0.44097767  0.06120161  0.01438049    -0.40400
C546        C  0.46831038  0.06271476  0.98280738     0.33000
C547        C  0.50861333  0.98409884  0.01178876     0.01600
F548        F  0.45146373  0.98158487  0.07124531    -0.12700
F549        F  0.47447170  0.08922417  0.95441479    -0.13200
C550        C  0.53617728  0.98717229  0.04242225     0.16600
C551        C  0.56075541  0.96460670  0.03866723     0.26000
C552        C  0.55805535  0.93856955  0.00416170    -0.40300
C553        C  0.52973541  0.93485852  0.97513504     0.32900
C554        C  0.50521870  0.95755110  0.97882737     0.14600
F555        F  0.53959167  0.01259034  0.07489804    -0.12700
F556        F  0.52579557  0.90920543  0.94336625    -0.13200
F557        F  0.58785058  0.96907521  0.06683992    -0.15500
F558        F  0.47852859  0.95410351  0.94929421    -0.14000
F559        F  0.51661352  0.03945816  0.95164130    -0.14000
F560        F  0.40864972  0.03085186  0.07315696    -0.15400
C561        C  0.35828485  0.11296326  0.82882506     0.14600
C562        C  0.35443930  0.14084925  0.79950631     0.01600
C563        C  0.34738188  0.16970027  0.82512077     0.16600
C564        C  0.34685160  0.17124835  0.87908424     0.26000
C565        C  0.35469321  0.14415485  0.90888594    -0.40400
C566        C  0.35690071  0.11439296  0.88275768     0.33000
C567        C  0.35703709  0.14020646  0.74232191     0.01600
F568        F  0.34018797  0.19633695  0.79766003    -0.12700
F569        F  0.35695792  0.08643779  0.90921090    -0.13200
C570        C  0.33811208  0.11949217  0.71212380     0.16600
C571        C  0.33938571  0.12089146  0.65816670     0.26000
C572        C  0.35774308  0.14468482  0.63313527    -0.40300
C573        C  0.38024301  0.16168974  0.66361318     0.32900
C574        C  0.37913104  0.16026207  0.71751691     0.14600
F575        F  0.31806520  0.09812374  0.73471143    -0.12700
F576        F  0.40500759  0.17767151  0.64176497    -0.13200
F577        F  0.32374090  0.09795023  0.63067474    -0.15500
F578        F  0.40038158  0.17781346  0.74565693    -0.14000
F579        F  0.36398115  0.08437235  0.80542283    -0.14000
F580        F  0.33620990  0.19861297  0.90153532    -0.15400
C581        C  0.33332720  0.15498896  0.21552268     0.14600
C582        C  0.36150761  0.14798200  0.24259177     0.01600
C583        C  0.38999518  0.14329675  0.21485841     0.16600
C584        C  0.38984384  0.14385278  0.16084111     0.26000
C585        C  0.36075767  0.14692028  0.13317663    -0.40400
C586        C  0.33326016  0.15579248  0.16161191     0.33000
C587        C  0.36133509  0.14792428  0.29976939     0.01600
F588        F  0.41809065  0.13841228  0.24008168    -0.12700
F589        F  0.30677767  0.16724837  0.13767776    -0.13200
C590        C  0.34213015  0.12609990  0.32674701     0.16600
C591        C  0.34082067  0.12700914  0.38070708     0.26000
C592        C  0.35748259  0.15085450  0.40899083    -0.40300
C593        C  0.37997708  0.16967956  0.38161540     0.32900
C594        C  0.38074188  0.16927385  0.32770576     0.14600
F595        F  0.32541561  0.10317266  0.30080532    -0.12700
F596        F  0.40334555  0.18634536  0.40633394    -0.13200
F597        F  0.32489293  0.10317891  0.40520169    -0.15500
F598        F  0.40078793  0.18962868  0.30277774    -0.14000
F599        F  0.30605694  0.16233868  0.24148867    -0.14000
F600        F  0.41849913  0.14377125  0.13623908    -0.15400
C601        C  0.45263790  0.36083977  0.97402170     0.14600
C602        C  0.45300983  0.34451012  0.02114127     0.01600
C603        C  0.46698760  0.35928911  0.06455019     0.16600
C604        C  0.48030991  0.39008386  0.06080540     0.26000
C605        C  0.47976683  0.40668738  0.01342941    -0.40400
C606        C  0.46578596  0.39150551  0.97011004     0.33000
C607        C  0.43793562  0.31241687  0.02456152     0.01600
F608        F  0.46800116  0.34374686  0.11042185    -0.12700
F609        F  0.46391543  0.40659786  0.92394670    -0.13200
C610        C  0.44964375  0.28682464  0.99461614     0.16600
C611        C  0.43373856  0.25726674  0.99414526     0.26000
C612        C  0.40596312  0.25274728  0.02391865    -0.40300
C613        C  0.39442940  0.27828303  0.05417917     0.32900
C614        C  0.41027205  0.30788181  0.05450272     0.14600
F615        F  0.47644683  0.29059056  0.96561539    -0.12700
F616        F  0.36691522  0.27493307  0.08149161    -0.13200
F617        F  0.44563808  0.23295503  0.96503178    -0.15500
F618        F  0.39783063  0.33255342  0.08225550    -0.14000
F619        F  0.43861506  0.34734517  0.93185367    -0.14000
F620        F  0.49389659  0.40342655  0.10347565    -0.15400
C621        C  0.13696014  0.05134809  0.06514827     0.14600
C622        C  0.14892305  0.07131012  0.02601129     0.01600
C623        C  0.12825154  0.08056113  0.98587332     0.16600
C624        C  0.09678509  0.06892433  0.98353713     0.26000
C625        C  0.08511073  0.04799744  0.02163019    -0.40400
C626        C  0.10530282  0.04003362  0.06323579     0.33000
C627        C  0.18307116  0.08183101  0.02607426     0.01600
F628        F  0.13859436  0.10091496  0.94872317    -0.12700
F629        F  0.09500131  0.01993335  0.10075152    -0.13200
C630        C  0.20267588  0.07581026  0.98301647     0.16600
C631        C  0.23463697  0.08605714  0.98233640     0.26000
C632        C  0.24788306  0.10290099  0.02468364    -0.40300
C633        C  0.22811556  0.10865696  0.06807074     0.32900
C634        C  0.19623316  0.09806954  0.06877062     0.14600
F635        F  0.19101880  0.05933765  0.94171818    -0.12700
F636        F  0.23902942  0.12559493  0.10934535    -0.13200
F637        F  0.25270491  0.07864566  0.94049793    -0.15500
F638        F  0.17788952  0.10460510  0.11075455    -0.14000
F639        F  0.15636718  0.04159257  0.10407956    -0.14000
F640        F  0.07768108  0.07825129  0.94394357    -0.15400
C641        C  0.03561039  0.53813600  0.45683383     0.14600
C642        C  0.01264759  0.53834334  0.49626934     0.01600
C643        C  0.01365260  0.56246496  0.53414831     0.16600
C644        C  0.03742720  0.58609460  0.53271082     0.26000
C645        C  0.06103415  0.58561222  0.49379896    -0.40400
C646        C  0.05983937  0.56122259  0.45594926     0.33000
C647        C  0.98829271  0.51271297  0.49849478     0.01600
F648        F  0.99138878  0.56326328  0.57229261    -0.12700
F649        F  0.08297454  0.55868595  0.41942147    -0.13200
C650        C  0.98855280  0.49066888  0.53915674     0.16600
C651        C  0.96663166  0.46530135  0.53987607     0.26000
C652        C  0.94364898  0.46188715  0.50027697    -0.40300
C653        C  0.94333686  0.48435383  0.45984731     0.32900
C654        C  0.96559788  0.50938101  0.45885915     0.14600
F655        F  0.01073590  0.49319064  0.57736740    -0.12700
F656        F  0.92102144  0.48259665  0.42180234    -0.13200
F657        F  0.96871800  0.44346544  0.57830268    -0.15500
F658        F  0.96481580  0.53065006  0.41942780    -0.14000
F659        F  0.03519887  0.51481056  0.42010452    -0.14000
F660        F  0.03700227  0.60961853  0.56902519    -0.15400
C661        C  0.95919436  0.15215647  0.53714348     0.14600
C662        C  0.94049446  0.16489731  0.49710266     0.01600
C663        C  0.93250838  0.14526800  0.45464785     0.16600
C664        C  0.94351728  0.11365710  0.45186132     0.26000
C665        C  0.96224931  0.10090054  0.49197171    -0.40400
C666        C  0.96980805  0.12046192  0.53477743     0.33000
C667        C  0.92991664  0.19880119  0.49920444     0.01600
F668        F  0.91363216  0.15659743  0.41616169    -0.12700
F669        F  0.98851326  0.10930989  0.57361992    -0.13200
C670        C  0.93770447  0.21986397  0.45905853     0.16600
C671        C  0.92812739  0.25190624  0.46108502     0.26000
C672        C  0.90963552  0.26352057  0.50276319    -0.40300
C673        C  0.90215139  0.24226538  0.54325455     0.32900
C674        C  0.91241490  0.21040970  0.54160664     0.14600
F675        F  0.95521919  0.20953642  0.41812004    -0.12700
F676        F  0.88382734  0.25171974  0.58372863    -0.13200
F677        F  0.93778070  0.27160443  0.42265497    -0.15500
F678        F  0.90434520  0.19058355  0.58088715    -0.14000
F679        F  0.96801788  0.17072777  0.57796168    -0.14000
F680        F  0.93531514  0.09537136  0.41038415    -0.15400
C681        C  0.69711549  0.40314921  0.46984690     0.14600
C682        C  0.68716562  0.42709984  0.50447190     0.01600
C683        C  0.70955558  0.44068632  0.53867158     0.16600
C684        C  0.74154202  0.43067084  0.53808925     0.26000
C685        C  0.75167344  0.40651681  0.50362299    -0.40400
C686        C  0.72901969  0.39278280  0.46962641     0.33000
C687        C  0.65360368  0.43851593  0.50437186     0.01600
F688        F  0.70051510  0.46424236  0.57188504    -0.12700
F689        F  0.73755310  0.36865124  0.43719556    -0.13200
C690        C  0.63355934  0.43280596  0.54685515     0.16600
C691        C  0.60237868  0.44511701  0.54793572     0.26000
C692        C  0.59069782  0.46330318  0.50637837    -0.40300
C693        C  0.61068172  0.46840518  0.46337951     0.32900
C694        C  0.64186933  0.45619007  0.46251948     0.14600
F695        F  0.64421923  0.41518220  0.58723114    -0.12700
F696        F  0.60052331  0.48631593  0.42297733    -0.13200
F697        F  0.58348609  0.43887118  0.58931413    -0.15500
F698        F  0.66104823  0.46253394  0.42152716    -0.14000
F699        F  0.67574905  0.38943240  0.43686053    -0.14000
F700        F  0.76277229  0.44534172  0.57014932    -0.15400
C701        C  0.99401411  0.48802777  0.95653979     0.14600
C702        C  0.01618100  0.48931691  0.99725932     0.01600
C703        C  0.01218417  0.46877026  0.03944369     0.16600
C704        C  0.98658839  0.44697895  0.04072491     0.26000
C705        C  0.96396840  0.44570545  0.00013088    -0.40400
C706        C  0.96798302  0.46676031  0.95813864     0.33000
C707        C  0.04196477  0.51383993  0.99752099     0.01600
F708        F  0.03325562  0.46974506  0.07940012    -0.12700
F709        F  0.94610620  0.46770200  0.91941320    -0.13200
C710        C  0.03915618  0.54082838  0.02967393     0.16600
C711        C  0.06238825  0.56499412  0.02874175     0.26000
C712        C  0.08912845  0.56253377  0.99595983    -0.40300
C713        C  0.09219488  0.53530356  0.96410774     0.32900
C714        C  0.06874290  0.51111100  0.96486538     0.14600
F715        F  0.01336350  0.54413400  0.06110170    -0.12700
F716        F  0.11815623  0.53192542  0.93308099    -0.13200
F717        F  0.05813828  0.59148885  0.05849307    -0.15500
F718        F  0.07226331  0.48491728  0.93414795    -0.14000
F719        F  0.99705791  0.50816832  0.91587682    -0.14000
F720        F  0.98447708  0.42666441  0.08125515    -0.15400
C721        C  0.89783135  0.34377448  0.80717431     0.14600
C722        C  0.87861359  0.36574805  0.78052445     0.01600
C723        C  0.86271245  0.38962512  0.80858095     0.16600
C724        C  0.86413872  0.39023413  0.86243282     0.26000
C725        C  0.87912923  0.36526756  0.89000451    -0.40400
C726        C  0.89887894  0.34415903  0.86134556     0.33000
C727        C  0.87603260  0.36524257  0.72344358     0.01600
F728        F  0.84654123  0.41306858  0.78356157    -0.12700
F729        F  0.92115542  0.32576984  0.88499520    -0.13200
C730        C  0.84639799  0.35913383  0.69978441     0.16600
C731        C  0.84310665  0.36085092  0.64608107     0.26000
C732        C  0.86891976  0.37104156  0.61482190    -0.40300
C733        C  0.89944985  0.37331870  0.63868520     0.32900
C734        C  0.90276758  0.37129735  0.69235923     0.14600
F735        F  0.82079442  0.35033847  0.72876230    -0.12700
F736        F  0.92652897  0.37581771  0.61007612    -0.13200
F737        F  0.81555267  0.34958143  0.62505020    -0.15500
F738        F  0.93215055  0.37539842  0.71398676    -0.14000
F739        F  0.91571976  0.32206925  0.78079626    -0.14000
F740        F  0.85228957  0.41632643  0.88720680    -0.15400
C741        C  0.89738496  0.37119700  0.20055015     0.14600
C742        C  0.86753032  0.36602347  0.22402587     0.01600
C743        C  0.84143081  0.35710906  0.19304825     0.16600
C744        C  0.84470337  0.35520339  0.13943226     0.26000
C745        C  0.87325133  0.36535053  0.11485346    -0.40400
C746        C  0.90042547  0.37005269  0.14664300     0.33000
C747        C  0.86406500  0.36839672  0.28092279     0.01600
F748        F  0.81266280  0.35014792  0.21473181    -0.12700
F749        F  0.93031440  0.37078965  0.12631600    -0.13200
C750        C  0.86852214  0.39786451  0.30619081     0.16600
C751        C  0.86627348  0.40000598  0.36005861     0.26000
C752        C  0.86181366  0.37219342  0.39015469    -0.40300
C753        C  0.85218865  0.34404252  0.36379982     0.32900
C754        C  0.85455752  0.34178418  0.31001648     0.14600
F755        F  0.87393041  0.42482391  0.27843975    -0.12700
F756        F  0.83928031  0.31900419  0.38970624    -0.13200
F757        F  0.86590281  0.42958328  0.38187594    -0.15500
F758        F  0.84774049  0.31347598  0.28639256    -0.14000
F759        F  0.92387385  0.37614506  0.23003605    -0.14000
F760        F  0.82032345  0.34181123  0.11210725    -0.15400
C761        C  0.93139247  0.20634987  0.03713730     0.14600
C762        C  0.91442191  0.18426737  0.00627072     0.01600
C763        C  0.88798917  0.19491617  0.97744074     0.16600
C764        C  0.87894389  0.22720095  0.97908690     0.26000
C765        C  0.89610760  0.24929779  0.00966464    -0.40400
C766        C  0.92219380  0.23849328  0.03909529     0.33000
C767        C  0.92493056  0.15037270  0.00408557     0.01600
F768        F  0.87083717  0.17402496  0.94801263    -0.12700
F769        F  0.93974815  0.25940250  0.06782942    -0.13200
C770        C  0.92738313  0.13259589  0.04970999     0.16600
C771        C  0.94114750  0.10212404  0.04926229     0.26000
C772        C  0.95266772  0.08854901  0.00283978    -0.40300
C773        C  0.94833157  0.10574106  0.95654636     0.32900
C774        C  0.93470443  0.13636797  0.95727528     0.14600
F775        F  0.91675993  0.14503310  0.09508726    -0.12700
F776        F  0.95798324  0.09342116  0.91053457    -0.13200
F777        F  0.94360395  0.08629195  0.09470926    -0.15500
F778        F  0.93235270  0.15289674  0.91245367    -0.14000
F779        F  0.95768113  0.19695552  0.06398103    -0.14000
F780        F  0.85320701  0.23691114  0.95126312    -0.15400
C781        C  0.65040003  0.44321969  0.95386489     0.17000
C782        C  0.66890962  0.44317694  0.99909455     0.01600
C783        C  0.65544427  0.45506254  0.04506345     0.16600
C784        C  0.62385518  0.46646724  0.04591761     0.26000
C785        C  0.60496332  0.46613864  0.00065207    -0.40400
C786        C  0.61887789  0.45450880  0.95451305     0.33000
C787        C  0.70198127  0.43006471  0.99836725     0.01600
F788        F  0.67308773  0.45597816  0.08912523    -0.12700
F789        F  0.60193727  0.45348747  0.90976426    -0.13200
C790        C  0.72547084  0.44318172  0.96571135     0.16600
C791        C  0.75651858  0.43049990  0.96476474     0.26000
C792        C  0.76466199  0.40468692  0.99667922    -0.40300
C793        C  0.74115279  0.39138872  0.02896019     0.32900
C794        C  0.71005046  0.40387339  0.02964960     0.14600
F795        F  0.71852068  0.46875719  0.93562188    -0.12700
F796        F  0.74823994  0.36585931  0.05903981    -0.13200
F797        F  0.77901683  0.44413446  0.93410134    -0.15500
F798        F  0.68758758  0.38999470  0.06013345    -0.14000
F799        F  0.66261520  0.43148002  0.90906484    -0.14000
F800        F  0.61198821  0.47799573  0.09108781    -0.15400
loop_ 
_geom_bond_atom_site_label_1 
_geom_bond_atom_site_label_2 
_geom_bond_distance 
_geom_bond_site_symmetry_2 
_ccdc_geom_bond_type 
C1            C3   1.545       .  S
C1            C5   1.537       .  S
C1            C4   1.549       .  S
C1          C745   1.539       .  S
C2            C6   1.549       .  S
C2            C8   1.544       .  S
C2            C7   1.538       .  S
C2          C725   1.539       .  S
C3           C11   1.380       .  A
C3            C6   1.395   1_554  A
C4           C15   1.385       .  A
C4            C7   1.394   1_554  A
C5           C19   1.378       .  A
C5            C8   1.395   1_554  A
C6            C9   1.386       .  A
C7           C13   1.377       .  A
C8           C16   1.381       .  A
C9           N10   1.358       .  A
C9           H22   1.078       .  S
N10          C11   1.353   1_556  A
N10         C792   1.438       .  S
C11          H12   1.086       .  S
C13          N14   1.361   1_556  A
C13          H23   1.082       .  S
N14          C15   1.363       .  A
N14         C705   1.451       .  S
C15          H21   1.081       .  S
C16          N17   1.357   1_556  A
C16          H18   1.081       .  S
N17          C19   1.358       .  A
N17         C765   1.439       .  S
C19          H20   1.082       .  S
C24          C26   1.541       .  S
C24          C28   1.536       .  S
C24          C27   1.549       .  S
C24         C752   1.539       .  S
C25          C29   1.534       .  S
C25          C31   1.549       .  S
C25          C30   1.542       .  S
C25         C732   1.539       .  S
C26          C34   1.379       .  A
C26          C29   1.387       .  A
C27          C38   1.380       .  A
C27          C30   1.396       .  A
C28          C42   1.377       .  A
C28          C31   1.397       .  A
C29          C32   1.376       .  A
C30          C36   1.378       .  A
C31          C39   1.384       .  A
C32          N33   1.361       .  A
C32          H45   1.081       .  S
N33          C34   1.361       .  A
N33         C672   1.449       .  S
C34          H35   1.079       .  S
C36          N37   1.358       .  A
C36          H46   1.082       .  S
N37          C38   1.358       .  A
N37         C652   1.443       .  S
C38          H44   1.081       .  S
C39          N40   1.361       .  A
C39          H41   1.081       .  S
N40          C42   1.359       .  A
N40         C685   1.445       .  S
C42          H43   1.082       .  S
C47          C49   1.539       .  S
C47          C51   1.541       .  S
C47          C50   1.543       .  S
C47         C585   1.535       .  S
C48          C52   1.544       .  S
C48          C54   1.536       .  S
C48          C53   1.546       .  S
C48         C565   1.536       .  S
C49          C57   1.379       .  A
C49          C52   1.401   1_554  A
C50          C61   1.380       .  A
C50          C53   1.396   1_554  A
C51          C65   1.380       .  A
C51          C54   1.387   1_554  A
C52          C55   1.385       .  A
C53          C59   1.381       .  A
C54          C62   1.377       .  A
C55          N56   1.357   1_556  A
C55          H68   1.081       .  S
N56          C57   1.355       .  A
N56         C612   1.440       .  S
C57          H58   1.083       .  S
C59          N60   1.356   1_556  A
C59          H69   1.082       .  S
N60          C61   1.356       .  A
N60         C545   1.439       .  S
C61          H67   1.082       .  S
C62          N63   1.363   1_556  A
C62          H64   1.081       .  S
N63          C65   1.361       .  A
N63         C632   1.452       .  S
C65          H66   1.080       .  S
C70          C72   1.553       .  S
C70          C74   1.552       .  S
C70          C73   1.533       .  S
C70         C572   1.536       .  S
C71          C75   1.541       .  S
C71          C77   1.542       .  S
C71          C76   1.527       .  S
C71         C592   1.535       .  S
C72          C80   1.387       .  A
C72          C75   1.398       .  A
C73          C84   1.381       .  A
C73          C76   1.385       .  A
C74          C88   1.382       .  A
C74          C77   1.399       .  A
C75          C78   1.377       .  A
C76          C82   1.373       .  A
C77          C85   1.380       .  A
C78          N79   1.355       .  A
C78          H91   1.081       .  S
N79          C80   1.360       .  A
N79         C505   1.447       .  S
C80          H81   1.079       .  S
C82          N83   1.357       .  A
C82          H92   1.082       .  S
N83          C84   1.361       .  A
N83         C485   1.439       .  S
C84          H90   1.082       .  S
C85          N86   1.356       .  A
C85          H87   1.082       .  S
N86          C88   1.358       .  A
N86         C532   1.439       .  S
C88          H89   1.082       .  S
C93          C95   1.549       .  S
C93          C97   1.546       .  S
C93          C96   1.534       .  S
C93         C432   1.537       .  S
C94          C98   1.546       .  S
C94         C100   1.537       .  S
C94          C99   1.540       .  S
C94         C405   1.534       .  S
C95         C103   1.383       .  A
C95          C98   1.398   1_554  A
C96         C107   1.376       .  A
C96          C99   1.392   1_554  A
C97         C111   1.384       .  A
C97         C100   1.394   1_554  A
C98         C101   1.382       .  A
C99         C105   1.381       .  A
C100        C108   1.379       .  A
C101        N102   1.355       .  A
C101        H114   1.082       .  S
N102        C103   1.357   1_556  A
N102        C452   1.436       .  S
C103        H104   1.082       .  S
C105        N106   1.359       .  A
C105        H115   1.081       .  S
N106        C107   1.355   1_556  A
N106        C552   1.439   1_556  S
C107        H113   1.083       .  S
C108        N109   1.357       .  A
C108        H110   1.083       .  S
N109        C111   1.359   1_556  A
N109        C465   1.440       .  S
C111        H112   1.081       .  S
C116        C118   1.546       .  S
C116        C120   1.542       .  S
C116        C119   1.535       .  S
C116        C412   1.536       .  S
C117        C121   1.550       .  S
C117        C123   1.536       .  S
C117        C122   1.546       .  S
C117        C425   1.535       .  S
C118        C126   1.381       .  A
C118        C121   1.396       .  A
C119        C130   1.377       .  A
C119        C122   1.394       .  A
C120        C134   1.379       .  A
C120        C123   1.390       .  A
C121        C124   1.383       .  A
C122        C128   1.385       .  A
C123        C131   1.380       .  A
C124        N125   1.358       .  A
C124        H137   1.082       .  S
N125        C126   1.358       .  A
N125        C372   1.444       .  S
C126        H127   1.081       .  S
C128        N129   1.358       .  A
C128        H138   1.082       .  S
N129        C130   1.355       .  A
N129        C492   1.436       .  S
C130        H136   1.083       .  S
C131        N132   1.360       .  A
C131        H133   1.082       .  S
N132        C134   1.359       .  A
N132        C385   1.445       .  S
C134        H135   1.081       .  S
C139        C141   1.530       .  S
C139        C143   1.548       .  S
C139        C142   1.548       .  S
C139        C285   1.533       .  S
C140        C144   1.530       .  S
C140        C146   1.548       .  S
C140        C145   1.542       .  S
C140        C312   1.536       .  S
C141        C149   1.379       .  A
C141        C144   1.382   1_556  A
C142        C153   1.384       .  A
C142        C145   1.396   1_556  A
C143        C157   1.386       .  A
C143        C146   1.412   1_556  A
C144        C147   1.378       .  A
C145        C151   1.377       .  A
C146        C154   1.388       .  A
C147        N148   1.359   1_554  A
C147        H160   1.082       .  S
N148        C149   1.360       .  A
N148        C352   1.441       .  S
C149        H150   1.083       .  S
C151        N152   1.358   1_554  A
C151        H161   1.082       .  S
N152        C153   1.360       .  A
N152        C712   1.442       .  S
C153        H159   1.082       .  S
C154        N155   1.353   1_554  A
C154        H156   1.081       .  S
N155        C157   1.352       .  A
N155        C332   1.443       .  S
C157        H158   1.083       .  S
C162        C164   1.522       .  S
C162        C166   1.541       .  S
C162        C165   1.541       .  S
C162        C292   1.534       .  S
C163        C167   1.534       .  S
C163        C169   1.543       .  S
C163        C168   1.546       .  S
C163        C305   1.538       .  S
C164        C172   1.370       .  A
C164        C167   1.388       .  A
C165        C176   1.376       .  A
C165        C168   1.398       .  A
C166        C180   1.379       .  A
C166        C169   1.402       .  A
C167        C170   1.378       .  A
C168        C174   1.379       .  A
C169        C177   1.381       .  A
C170        N171   1.361       .  A
C170        H183   1.082       .  S
N171        C172   1.356       .  A
N171        C245   1.436       .  S
C172        H173   1.083       .  S
C174        N175   1.359       .  A
C174        H184   1.081       .  S
N175        C176   1.357       .  A
N175        C645   1.443       .  S
C176        H182   1.080       .  S
C177        N178   1.354       .  A
C177        H179   1.082       .  S
N178        C180   1.353       .  A
N178        C265   1.436       .  S
C180        H181   1.082       .  S
O185       Ni193   1.917       .  S
O185        C195   1.282       .  A
O186       Ni193   1.915   1_465  S
O186        C196   1.281       .  A
O187       Ni193   1.928   1_455  S
O187        C197   1.283       .  A
O188       Ni193   1.924   1_565  S
O188        C198   1.284   1_554  A
O189       Ni194   1.919   1_665  S
O189        C198   1.281       .  A
O190       Ni194   1.920       .  S
O190        C197   1.282   1_556  A
O191       Ni194   1.919   1_565  S
O191        C196   1.283   1_556  A
O192       Ni194   1.919   1_655  S
O192        C195   1.282   1_556  A
Ni193      Ni194   2.381   1_654  S
C195        C772   1.491       .  S
C196        C345   1.491       .  S
C197        C625   1.487       .  S
C198        C472   1.495       .  S
O199       Ni207   1.911   1_465  S
O199        C209   1.280       .  A
O200       Ni207   1.913       .  S
O200        C210   1.280       .  A
O201       Ni207   1.916   1_565  S
O201        C211   1.281       .  A
O202       Ni207   1.913   1_455  S
O202        C212   1.281       .  A
O203       Ni208   1.929   1_455  S
O203        C212   1.284       .  A
O204       Ni208   1.928   1_565  S
O204        C211   1.283       .  A
O205       Ni208   1.922       .  S
O205        C210   1.282       .  A
O206       Ni208   1.925   1_465  S
O206        C209   1.283       .  A
Ni207      Ni208   2.384       .  S
C209        C272   1.487       .  S
C210        C665   1.481       .  S
C211        C392   1.486       .  S
C212        C525   1.494       .  S
O213       Ni221   1.931       .  S
O213        C223   1.285   1_554  A
O214       Ni221   1.930       .  S
O214        C224   1.284       .  A
O215       Ni221   1.920       .  S
O215        C225   1.282   1_554  A
O216       Ni221   1.921       .  S
O216        C226   1.281       .  A
O217       Ni222   1.918       .  S
O217        C226   1.282   1_556  A
O218       Ni222   1.923       .  S
O218        C225   1.282       .  A
O219       Ni222   1.914       .  S
O219        C224   1.281   1_556  A
O220       Ni222   1.916       .  S
O220        C223   1.281       .  A
Ni221      Ni222   2.380   1_554  S
C223        C325   1.497       .  S
C224        C785   1.494       .  S
C225        C445   1.493       .  S
C226        C605   1.490       .  S
O227       Ni235   1.921       .  S
O227        C237   1.282       .  A
O228       Ni235   1.921       .  S
O228        C238   1.283       .  A
O229       Ni235   1.915       .  S
O229        C239   1.280       .  A
O230       Ni235   1.918       .  S
O230        C240   1.282       .  A
O231       Ni236   1.919       .  S
O231        C240   1.282       .  A
O232       Ni236   1.918       .  S
O232        C239   1.282       .  A
O233       Ni236   1.908       .  S
O233        C238   1.280       .  A
O234       Ni236   1.915       .  S
O234        C237   1.281       .  A
Ni235      Ni236   2.385       .  S
C237        C692   1.482       .  S
C238        C252   1.486       .  S
C239        C512   1.475       .  S
C240        C365   1.490       .  S
C241        C242   1.406       .  A
C241        C246   1.397       .  A
C241        F259   1.358       .  S
C242        C243   1.404       .  A
C242        C247   1.479       .  S
C243        C244   1.397       .  A
C243        F248   1.358       .  S
C244        C245   1.408       .  A
C244        F260   1.357       .  S
C245        C246   1.404       .  A
C246        F249   1.357       .  S
C247        C250   1.404       .  A
C247        C254   1.403       .  A
C250        C251   1.399       .  A
C250        F255   1.358       .  S
C251        C252   1.411       .  A
C251        F257   1.358       .  S
C252        C253   1.412       .  A
C253        C254   1.395       .  A
C253        F256   1.358       .  S
C254        F258   1.358       .  S
C261        C262   1.403       .  A
C261        C266   1.395       .  A
C261        F279   1.358       .  S
C262        C263   1.405       .  A
C262        C267   1.477       .  S
C263        C264   1.401       .  A
C263        F268   1.358       .  S
C264        C265   1.406       .  A
C264        F280   1.357       .  S
C265        C266   1.406       .  A
C266        F269   1.357       .  S
C267        C270   1.404       .  A
C267        C274   1.401       .  A
C270        C271   1.402       .  A
C270        F275   1.358       .  S
C271        C272   1.412       .  A
C271        F277   1.358       .  S
C272        C273   1.412       .  A
C273        C274   1.396       .  A
C273        F276   1.358       .  S
C274        F278   1.358       .  S
C281        C282   1.403       .  A
C281        C286   1.400       .  A
C281        F299   1.358       .  S
C282        C283   1.402       .  A
C282        C287   1.481       .  S
C283        C284   1.397       .  A
C283        F288   1.358       .  S
C284        C285   1.416       .  A
C284        F300   1.356       .  S
C285        C286   1.414       .  A
C286        F289   1.357       .  S
C287        C290   1.403       .  A
C287        C294   1.402       .  A
C290        C291   1.399       .  A
C290        F295   1.358       .  S
C291        C292   1.416       .  A
C291        F297   1.357       .  S
C292        C293   1.414       .  A
C293        C294   1.399       .  A
C293        F296   1.356       .  S
C294        F298   1.358       .  S
C301        C302   1.403       .  A
C301        C306   1.400       .  A
C301        F319   1.358       .  S
C302        C303   1.403       .  A
C302        C307   1.485       .  S
C303        C304   1.402       .  A
C303        F308   1.358       .  S
C304        C305   1.414       .  A
C304        F320   1.356       .  S
C305        C306   1.416       .  A
C306        F309   1.357       .  S
C307        C310   1.403       .  A
C307        C314   1.403       .  A
C310        C311   1.399       .  A
C310        F315   1.358       .  S
C311        C312   1.415       .  A
C311        F317   1.356       .  S
C312        C313   1.415       .  A
C313        C314   1.401       .  A
C313        F316   1.357       .  S
C314        F318   1.358       .  S
C321        C322   1.408   1_554  A
C321        C326   1.404       .  A
C321        F339   1.358       .  S
C322        C323   1.406       .  A
C322        C327   1.495       .  S
C323        C324   1.400       .  A
C323        F328   1.358       .  S
C324        C325   1.414       .  A
C324        F340   1.358       .  S
C325        C326   1.412   1_556  A
C326        F329   1.357       .  S
C327        C330   1.409       .  A
C327        C334   1.410   1_556  A
C330        C331   1.399       .  A
C330        F335   1.358       .  S
C331        C332   1.405       .  A
C331        F337   1.357       .  S
C332        C333   1.407   1_556  A
C333        C334   1.404       .  A
C333        F336   1.357       .  S
C334        F338   1.358       .  S
C341        C342   1.405   1_556  A
C341        C346   1.398       .  A
C341        F359   1.358       .  S
C342        C343   1.406       .  A
C342        C347   1.486       .  S
C343        C344   1.401       .  A
C343        F348   1.358       .  S
C344        C345   1.413       .  A
C344        F360   1.358       .  S
C345        C346   1.411   1_554  A
C346        F349   1.358       .  S
C347        C350   1.407       .  A
C347        C354   1.407   1_554  A
C350        C351   1.401       .  A
C350        F355   1.358       .  S
C351        C352   1.407   1_554  A
C351        F357   1.357       .  S
C352        C353   1.407       .  A
C353        C354   1.399       .  A
C353        F356   1.357       .  S
C354        F358   1.358       .  S
C361        C362   1.404       .  A
C361        C366   1.400       .  A
C361        F379   1.358       .  S
C362        C363   1.405       .  A
C362        C367   1.485       .  S
C363        C364   1.399       .  A
C363        F368   1.358       .  S
C364        C365   1.412       .  A
C364        F380   1.358       .  S
C365        C366   1.412       .  A
C366        F369   1.358       .  S
C367        C370   1.406       .  A
C367        C374   1.406       .  A
C370        C371   1.400       .  A
C370        F375   1.358       .  S
C371        C372   1.408       .  A
C371        F377   1.357       .  S
C372        C373   1.409       .  A
C373        C374   1.400       .  A
C373        F376   1.357       .  S
C374        F378   1.358       .  S
C381        C382   1.406       .  A
C381        C386   1.404       .  A
C381        F399   1.358       .  S
C382        C383   1.403       .  A
C382        C387   1.484       .  S
C383        C384   1.397       .  A
C383        F388   1.358       .  S
C384        C385   1.411       .  A
C384        F400   1.357       .  S
C385        C386   1.409       .  A
C386        F389   1.357       .  S
C387        C390   1.406       .  A
C387        C394   1.404       .  A
C390        C391   1.404       .  A
C390        F395   1.358       .  S
C391        C392   1.409       .  A
C391        F397   1.358   1_565  S
C392        C393   1.409       .  A
C393        C394   1.399       .  A
C393        F396   1.358       .  S
C394        F398   1.358       .  S
C401        C402   1.400       .  A
C401        C406   1.397       .  A
C401        F419   1.358       .  S
C402        C403   1.403       .  A
C402        C407   1.481       .  S
C403        C404   1.400       .  A
C403        F408   1.358       .  S
C404        C405   1.416       .  A
C404        F420   1.355       .  S
C405        C406   1.416       .  A
C406        F409   1.356       .  S
C407        C410   1.401       .  A
C407        C414   1.402       .  A
C410        C411   1.398       .  A
C410        F415   1.358       .  S
C411        C412   1.415       .  A
C411        F417   1.356       .  S
C412        C413   1.416       .  A
C413        C414   1.399       .  A
C413        F416   1.355       .  S
C414        F418   1.358       .  S
C421        C422   1.399       .  A
C421        C426   1.396       .  A
C421        F439   1.358       .  S
C422        C423   1.403       .  A
C422        C427   1.479       .  S
C423        C424   1.402       .  A
C423        F428   1.358       .  S
C424        C425   1.416       .  A
C424        F440   1.355       .  S
C425        C426   1.416       .  A
C426        F429   1.356       .  S
C427        C430   1.399       .  A
C427        C434   1.401       .  A
C430        C431   1.397       .  A
C430        F435   1.358       .  S
C431        C432   1.417       .  A
C431        F437   1.355       .  S
C432        C433   1.418       .  A
C433        C434   1.401       .  A
C433        F436   1.355       .  S
C434        F438   1.358       .  S
C441        C442   1.404   1_554  A
C441        C446   1.399       .  A
C441        F459   1.358       .  S
C442        C443   1.406       .  A
C442        C447   1.487       .  S
C443        C444   1.404       .  A
C443        F448   1.358       .  S
C444        C445   1.413       .  A
C444        F460   1.358       .  S
C445        C446   1.412   1_556  A
C446        F449   1.358       .  S
C447        C450   1.408       .  A
C447        C454   1.408       .  A
C450        C451   1.400       .  A
C450        F455   1.358       .  S
C451        C452   1.403       .  A
C451        F457   1.357   1_556  S
C452        C453   1.405       .  A
C453        C454   1.403       .  A
C453        F456   1.357       .  S
C454        F458   1.358       .  S
C461        C462   1.408       .  A
C461        C466   1.402       .  A
C461        F479   1.358   1_556  S
C462        C463   1.407       .  A
C462        C467   1.488       .  S
C463        C464   1.402       .  A
C463        F468   1.358       .  S
C464        C465   1.407       .  A
C464        F480   1.357       .  S
C465        C466   1.404       .  A
C466        F469   1.357   1_556  S
C467        C470   1.405       .  A
C467        C474   1.404   1_556  A
C470        C471   1.403       .  A
C470        F475   1.358       .  S
C471        C472   1.415       .  A
C471        F477   1.358       .  S
C472        C473   1.412   1_556  A
C473        C474   1.400       .  A
C473        F476   1.357       .  S
C474        F478   1.358       .  S
C481        C482   1.407       .  A
C481        C486   1.403       .  A
C481        F499   1.358   1_545  S
C482        C483   1.405       .  A
C482        C487   1.485   1_545  S
C483        C484   1.397       .  A
C483        F488   1.358       .  S
C484        C485   1.406       .  A
C484        F500   1.357       .  S
C485        C486   1.407       .  A
C486        F489   1.357       .  S
C487        C490   1.408       .  A
C487        C494   1.407       .  A
C490        C491   1.403       .  A
C490        F495   1.358       .  S
C491        C492   1.404       .  A
C491        F497   1.357       .  S
C492        C493   1.403       .  A
C493        C494   1.399       .  A
C493        F496   1.357       .  S
C494        F498   1.358   1_565  S
C501        C502   1.400       .  A
C501        C506   1.395       .  A
C501        F519   1.358       .  S
C502        C503   1.403       .  A
C502        C507   1.476       .  S
C503        C504   1.403       .  A
C503        F508   1.358       .  S
C504        C505   1.412       .  A
C504        F520   1.356       .  S
C505        C506   1.413       .  A
C506        F509   1.357       .  S
C507        C510   1.403       .  A
C507        C514   1.404       .  A
C510        C511   1.397       .  A
C510        F515   1.358       .  S
C511        C512   1.406       .  A
C511        F517   1.358       .  S
C512        C513   1.407       .  A
C513        C514   1.401       .  A
C513        F516   1.358       .  S
C514        F518   1.358       .  S
C521        C522   1.403       .  A
C521        C526   1.399       .  A
C521        F539   1.358       .  S
C522        C523   1.406       .  A
C522        C527   1.486       .  S
C523        C524   1.403       .  A
C523        F528   1.358       .  S
C524        C525   1.413       .  A
C524        F540   1.358       .  S
C525        C526   1.414       .  A
C526        F529   1.358       .  S
C527        C530   1.406       .  A
C527        C534   1.407       .  A
C530        C531   1.399       .  A
C530        F535   1.358       .  S
C531        C532   1.406       .  A
C531        F537   1.357       .  S
C532        C533   1.405       .  A
C533        C534   1.403       .  A
C533        F536   1.357       .  S
C534        F538   1.358       .  S
C541        C542   1.403   1_556  A
C541        C546   1.398       .  A
C541        F559   1.358       .  S
C542        C543   1.402       .  A
C542        C547   1.473   1_545  S
C543        C544   1.399       .  A
C543        F548   1.358   1_545  S
C544        C545   1.409       .  A
C544        F560   1.357       .  S
C545        C546   1.406   1_554  A
C546        F549   1.357       .  S
C547        C550   1.402       .  A
C547        C554   1.402   1_554  A
C550        C551   1.398       .  A
C550        F555   1.358   1_565  S
C551        C552   1.408       .  A
C551        F557   1.357       .  S
C552        C553   1.408   1_554  A
C553        C554   1.399       .  A
C553        F556   1.357       .  S
C554        F558   1.358       .  S
C561        C562   1.404       .  A
C561        C566   1.400       .  A
C561        F579   1.358       .  S
C562        C563   1.404       .  A
C562        C567   1.486       .  S
C563        C564   1.399       .  A
C563        F568   1.358       .  S
C564        C565   1.412       .  A
C564        F580   1.356       .  S
C565        C566   1.415       .  A
C566        F569   1.357       .  S
C567        C570   1.404       .  A
C567        C574   1.403       .  A
C570        C571   1.401       .  A
C570        F575   1.358       .  S
C571        C572   1.414       .  A
C571        F577   1.356       .  S
C572        C573   1.414       .  A
C573        C574   1.399       .  A
C573        F576   1.355       .  S
C574        F578   1.358       .  S
C581        C582   1.401       .  A
C581        C586   1.397       .  A
C581        F599   1.358       .  S
C582        C583   1.404       .  A
C582        C587   1.481       .  S
C583        C584   1.400       .  A
C583        F588   1.358       .  S
C584        C585   1.415       .  A
C584        F600   1.356       .  S
C585        C586   1.414       .  A
C586        F589   1.356       .  S
C587        C590   1.403       .  A
C587        C594   1.401       .  A
C590        C591   1.399       .  A
C590        F595   1.358       .  S
C591        C592   1.414       .  A
C591        F597   1.357       .  S
C592        C593   1.417       .  A
C593        C594   1.397       .  A
C593        F596   1.355       .  S
C594        F598   1.358       .  S
C601        C602   1.402   1_556  A
C601        C606   1.396       .  A
C601        F619   1.358       .  S
C602        C603   1.405       .  A
C602        C607   1.483       .  S
C603        C604   1.404       .  A
C603        F608   1.358       .  S
C604        C605   1.413       .  A
C604        F620   1.358       .  S
C605        C606   1.411   1_554  A
C606        F609   1.357       .  S
C607        C610   1.406   1_554  A
C607        C614   1.405       .  A
C610        C611   1.400       .  A
C610        F615   1.358       .  S
C611        C612   1.406   1_556  A
C611        F617   1.357       .  S
C612        C613   1.406       .  A
C613        C614   1.401       .  A
C613        F616   1.357       .  S
C614        F618   1.358       .  S
C621        C622   1.408       .  A
C621        C626   1.403       .  A
C621        F639   1.358       .  S
C622        C623   1.407   1_554  A
C622        C627   1.491       .  S
C623        C624   1.401       .  A
C623        F628   1.358       .  S
C624        C625   1.409   1_556  A
C624        F640   1.358       .  S
C625        C626   1.409       .  A
C626        F629   1.358       .  S
C627        C630   1.406   1_554  A
C627        C634   1.405       .  A
C630        C631   1.400       .  A
C630        F635   1.358       .  S
C631        C632   1.411   1_556  A
C631        F637   1.356       .  S
C632        C633   1.415       .  A
C633        C634   1.402       .  A
C633        F636   1.357       .  S
C634        F638   1.358       .  S
C641        C642   1.402       .  A
C641        C646   1.396       .  A
C641        F659   1.358       .  S
C642        C643   1.403       .  A
C642        C647   1.476   1_455  S
C643        C644   1.399       .  A
C643        F648   1.358   1_455  S
C644        C645   1.411       .  A
C644        F660   1.357       .  S
C645        C646   1.411       .  A
C646        F649   1.357       .  S
C647        C650   1.403       .  A
C647        C654   1.402       .  A
C650        C651   1.399       .  A
C650        F655   1.358   1_655  S
C651        C652   1.410       .  A
C651        F657   1.357       .  S
C652        C653   1.410       .  A
C653        C654   1.397       .  A
C653        F656   1.357       .  S
C654        F658   1.358       .  S
C661        C662   1.405       .  A
C661        C666   1.398       .  A
C661        F679   1.358       .  S
C662        C663   1.407       .  A
C662        C667   1.485       .  S
C663        C664   1.400       .  A
C663        F668   1.358       .  S
C664        C665   1.408       .  A
C664        F680   1.358       .  S
C665        C666   1.409       .  A
C666        F669   1.358       .  S
C667        C670   1.404       .  A
C667        C674   1.405       .  A
C670        C671   1.398       .  A
C670        F675   1.358       .  S
C671        C672   1.413       .  A
C671        F677   1.356       .  S
C672        C673   1.413       .  A
C673        C674   1.399       .  A
C673        F676   1.356       .  S
C674        F678   1.358       .  S
C681        C682   1.404       .  A
C681        C686   1.401       .  A
C681        F699   1.358       .  S
C682        C683   1.404       .  A
C682        C687   1.481       .  S
C683        C684   1.400       .  A
C683        F688   1.358       .  S
C684        C685   1.410       .  A
C684        F700   1.357       .  S
C685        C686   1.410       .  A
C686        F689   1.357       .  S
C687        C690   1.405       .  A
C687        C694   1.404       .  A
C690        C691   1.401       .  A
C690        F695   1.358       .  S
C691        C692   1.408       .  A
C691        F697   1.358       .  S
C692        C693   1.410       .  A
C693        C694   1.399       .  A
C693        F696   1.358       .  S
C694        F698   1.358       .  S
C701        C702   1.403   1_655  A
C701        C706   1.403       .  A
C701        F719   1.358       .  S
C702        C703   1.403   1_556  A
C702        C707   1.484       .  S
C703        C704   1.402   1_455  A
C703        F708   1.358       .  S
C704        C705   1.413       .  A
C704        F720   1.357       .  S
C705        C706   1.413   1_554  A
C706        F709   1.357       .  S
C707        C710   1.403   1_556  A
C707        C714   1.407       .  A
C710        C711   1.398       .  A
C710        F715   1.358       .  S
C711        C712   1.407   1_554  A
C711        F717   1.357       .  S
C712        C713   1.408       .  A
C713        C714   1.405       .  A
C713        F716   1.357       .  S
C714        F718   1.358       .  S
C721        C722   1.404       .  A
C721        C726   1.404       .  A
C721        F739   1.358       .  S
C722        C723   1.400       .  A
C722        C727   1.483       .  S
C723        C724   1.397       .  A
C723        F728   1.358       .  S
C724        C725   1.414       .  A
C724        F740   1.356       .  S
C725        C726   1.416       .  A
C726        F729   1.355       .  S
C727        C730   1.402       .  A
C727        C734   1.400       .  A
C730        C731   1.400       .  A
C730        F735   1.358       .  S
C731        C732   1.415       .  A
C731        F737   1.354       .  S
C732        C733   1.418       .  A
C733        C734   1.400       .  A
C733        F736   1.357       .  S
C734        F738   1.358       .  S
C741        C742   1.404       .  A
C741        C746   1.403       .  A
C741        F759   1.358       .  S
C742        C743   1.401       .  A
C742        C747   1.484       .  S
C743        C744   1.398       .  A
C743        F748   1.358       .  S
C744        C745   1.417       .  A
C744        F760   1.357       .  S
C745        C746   1.414       .  A
C746        F749   1.355       .  S
C747        C750   1.403       .  A
C747        C754   1.403       .  A
C750        C751   1.401       .  A
C750        F755   1.358       .  S
C751        C752   1.415       .  A
C751        F757   1.356       .  S
C752        C753   1.413       .  A
C753        C754   1.400       .  A
C753        F756   1.357       .  S
C754        F758   1.358       .  S
C761        C762   1.407       .  A
C761        C766   1.398       .  A
C761        F779   1.358       .  S
C762        C763   1.406   1_554  A
C762        C767   1.484       .  S
C763        C764   1.402       .  A
C763        F768   1.358       .  S
C764        C765   1.407   1_556  A
C764        F780   1.357       .  S
C765        C766   1.405       .  A
C766        F769   1.357       .  S
C767        C770   1.403       .  A
C767        C774   1.405   1_554  A
C770        C771   1.398       .  A
C770        F775   1.358       .  S
C771        C772   1.412       .  A
C771        F777   1.358       .  S
C772        C773   1.413   1_554  A
C773        C774   1.401       .  A
C773        F776   1.358       .  S
C774        F778   1.358       .  S
C781        C782   1.403       .  A
C781        C786   1.399       .  A
C781        F799   1.358       .  S
C782        C783   1.406   1_556  A
C782        C787   1.486       .  S
C783        C784   1.403       .  A
C783        F788   1.358       .  S
C784        C785   1.412       .  A
C784        F800   1.358       .  S
C785        C786   1.414   1_554  A
C786        F789   1.358       .  S
C787        C790   1.408       .  A
C787        C794   1.406   1_556  A
C790        C791   1.401       .  A
C790        F795   1.358       .  S
C791        C792   1.405       .  A
C791        F797   1.357       .  S
C792        C793   1.406   1_556  A
C793        C794   1.400       .  A
C793        F796   1.357       .  S
C794        F798   1.358       .  S
