geometry optimzed in LAMMPS
_audit_creation_date              2020-11-30 
_audit_creation_method            'lammps2cif' 
_symmetry_space_group_name_H-M    'P1' 
_symmetry_Int_Tables_number       1 
_symmetry_cell_setting            triclinic 
loop_ 
_symmetry_equiv_pos_as_xyz 
  x,y,z 
_cell_length_a                    30.65677967 
_cell_length_b                    30.704203283427876 
_cell_length_c                    34.602166160207965 
_cell_angle_alpha                 89.26295616439613 
_cell_angle_beta                  90.93954092498606 
_cell_angle_gamma                 89.20411354846 
loop_ 
_atom_site_label 
_atom_site_type_symbol 
_atom_site_fract_x 
_atom_site_fract_y 
_atom_site_fract_z 
_atom_site_charge 
C1          C  0.85925852  0.37330964  0.02294764     0.30200
C2          C  0.86162298  0.37543812  0.44332838     0.30200
C3          C  0.81516153  0.38252339  0.00171088    -0.06000
C4          C  0.88972262  0.40621020  0.00454916    -0.06800
C5          C  0.87201321  0.32986330  0.00334929    -0.06700
C6          C  0.81618177  0.38416849  0.46122129    -0.06000
C7          C  0.89133759  0.40697588  0.46479872    -0.06800
C8          C  0.87269813  0.33074870  0.46279022    -0.06700
C9          C  0.77371632  0.39182648  0.44820126    -0.32100
N10         N  0.74733852  0.39504280  0.47930862     0.14500
C11         C  0.77200982  0.38767287  0.01177846    -0.32100
H12         H  0.75937319  0.38804917  0.04085662     0.16400
C13         C  0.92164848  0.43798947  0.45495323    -0.31000
N14         N  0.93771272  0.45583153  0.98797338     0.13200
C15         C  0.91832494  0.43660040  0.01839138    -0.31000
C16         C  0.88169372  0.28873567  0.45089981    -0.31300
N17         N  0.88767795  0.26271435  0.48260163     0.13700
H18         H  0.88526509  0.27804918  0.42143264     0.16300
C19         C  0.88077361  0.28719206  0.01467206    -0.31300
H20         H  0.88314942  0.27479806  0.04406748     0.16300
H21         H  0.92514082  0.44386935  0.04841156     0.16300
H22         H  0.76290493  0.39614490  0.41851800     0.16400
H23         H  0.93163060  0.44696824  0.42611008     0.16300
C24         C  0.86632763  0.38091776  0.19368342     0.30200
C25         C  0.86638821  0.37940371  0.27324304     0.30200
C26         C  0.87879469  0.33662340  0.21340185    -0.06000
C27         C  0.89671654  0.41315201  0.21405904    -0.06800
C28         C  0.82159627  0.38976260  0.21276540    -0.06700
C29         C  0.87865534  0.33593474  0.25381956    -0.06000
C30         C  0.89651538  0.41208055  0.25406381    -0.06800
C31         C  0.82186612  0.38869724  0.25316564    -0.06700
C32         C  0.88729746  0.29345703  0.26561460    -0.32100
N33         N  0.89426229  0.26872780  0.23399732     0.14500
C34         C  0.88800763  0.29443050  0.20199370    -0.32100
H35         H  0.89038108  0.28316857  0.17258547     0.16400
C36         C  0.92594235  0.44213605  0.26709327    -0.31000
N37         N  0.94414375  0.46146449  0.23605463     0.13200
C38         C  0.92658427  0.44430035  0.20340623    -0.31000
C39         C  0.77933732  0.39424637  0.26468124    -0.31300
N40         N  0.75343450  0.40053265  0.23295688     0.13700
H41         H  0.76800497  0.39488082  0.29417532     0.16300
C42         C  0.77853268  0.39660405  0.20104797    -0.31300
H43         H  0.76630906  0.39924695  0.17163797     0.16300
H44         H  0.93514505  0.45359806  0.17424221     0.16300
H45         H  0.88909751  0.28139266  0.29512640     0.16400
H46         H  0.93379698  0.44935264  0.29691787     0.16300
C47         C  0.36728859  0.14166580  0.04432470     0.30200
C48         C  0.36628835  0.14875733  0.46482113     0.30200
C49         C  0.37711503  0.18732698  0.02723373    -0.06000
C50         C  0.39870764  0.11139731  0.02290055    -0.06800
C51         C  0.32311057  0.13257238  0.02400873    -0.06700
C52         C  0.37821482  0.18999899  0.48715912    -0.06000
C53         C  0.39770101  0.11394916  0.48272653    -0.06800
C54         C  0.32284333  0.13518897  0.48360132    -0.06700
C55         C  0.39004145  0.23177870  0.47760631    -0.32100
N56         N  0.39396335  0.25584360  0.01034168     0.14500
C57         C  0.38461269  0.22893059  0.04074118    -0.32100
H58         H  0.38315329  0.23866051  0.07060386     0.16400
C59         C  0.42724146  0.08305097  0.46993614    -0.31000
N60         N  0.44740254  0.06420042  0.00108944     0.13200
C61         C  0.42976766  0.08046795  0.03356639    -0.31000
C62         C  0.28172281  0.12331409  0.47114857    -0.31300
N63         N  0.25671767  0.11468987  0.00241274     0.13700
H64         H  0.27063383  0.12147794  0.44143383     0.16300
C65         C  0.28170685  0.12063822  0.03467993    -0.31300
H66         H  0.27078027  0.11541848  0.06393674     0.16300
H67         H  0.43943583  0.07097738  0.06274100     0.16300
H68         H  0.39614769  0.24369030  0.44865328     0.16400
H69         H  0.43462094  0.07569030  0.44024124     0.16300
C70         C  0.36198856  0.14310975  0.29390679     0.30200
C71         C  0.36499756  0.14050302  0.21428067     0.30200
C72         C  0.37255051  0.18597077  0.27278692    -0.06000
C73         C  0.39427425  0.10940244  0.27642752    -0.06800
C74         C  0.31898247  0.12966549  0.27305835    -0.06700
C75         C  0.37446202  0.18511373  0.23280479    -0.06000
C76         C  0.39613151  0.10954558  0.23633604    -0.06800
C77         C  0.32015804  0.12965667  0.23249106    -0.06700
C78         C  0.38568838  0.22686398  0.22108420    -0.32100
N79         N  0.39071125  0.25259630  0.25268164     0.14500
C80         C  0.38097909  0.22788059  0.28415021    -0.32100
H81         H  0.38066338  0.23930568  0.31355381     0.16400
C82         C  0.42689426  0.07925113  0.22560912    -0.31000
N83         N  0.44355071  0.05966867  0.25784088     0.13200
C84         C  0.42313980  0.07656688  0.28903907    -0.31000
C85         C  0.27880532  0.11848991  0.21951889    -0.31300
N86         N  0.25339389  0.10962643  0.25047881     0.13700
H87         H  0.26803754  0.11639861  0.18970239     0.16300
C88         C  0.27777718  0.11577202  0.28317562    -0.31300
H89         H  0.26623220  0.11065252  0.31227083     0.16300
H90         H  0.42991197  0.06669638  0.31870232     0.16300
H91         H  0.39162491  0.23715918  0.19166788     0.17200
H92         H  0.43688095  0.07219099  0.19650457     0.16300
C93         C  0.66002290  0.85332007  0.46077418     0.30200
C94         C  0.65951275  0.85044014  0.04024457     0.30200
C95         C  0.70408642  0.86203109  0.48103672    -0.06000
C96         C  0.63161883  0.88846183  0.48030267    -0.06800
C97         C  0.64560682  0.81075523  0.47954240    -0.06700
C98         C  0.70401854  0.86058252  0.02174684    -0.06000
C99         C  0.63098061  0.88685286  0.02080863    -0.06800
C100        C  0.64485052  0.80939995  0.01932571    -0.06700
C101        C  0.73982265  0.88383689  0.03420746    -0.32100
N102        N  0.76203271  0.89789049  0.50280814     0.14500
C103        C  0.73920227  0.88694450  0.47059812    -0.32100
H104        H  0.74686746  0.89757091  0.44153732     0.16400
C105        C  0.60493998  0.92121178  0.03242247    -0.31000
N106        N  0.58945552  0.94277357  0.50043427     0.13200
C107        C  0.60678977  0.92429993  0.46869403    -0.31000
C108        C  0.62814581  0.76952427  0.02965964    -0.31300
N109        N  0.61955560  0.74648233  0.49703237     0.13700
H110        H  0.62134526  0.75852890  0.05874638     0.16300
C111        C  0.63121267  0.77130686  0.46629671    -0.31300
H112        H  0.62872937  0.76166997  0.43636469     0.16300
H113        H  0.60010920  0.93509598  0.43929557     0.16300
H114        H  0.74835655  0.89091503  0.06388786     0.16400
H115        H  0.59655698  0.92910136  0.06181474     0.16300
C116        C  0.65810405  0.84922374  0.29047269     0.30200
C117        C  0.65830486  0.84911697  0.21104486     0.30200
C118        C  0.64369516  0.80721864  0.27106863    -0.06000
C119        C  0.62948467  0.88466912  0.27028853    -0.06800
C120        C  0.70220254  0.85893485  0.27170436    -0.06700
C121        C  0.64416379  0.80698098  0.23119853    -0.06000
C122        C  0.62926100  0.88487654  0.22984779    -0.06800
C123        C  0.70256786  0.85853474  0.23121662    -0.06700
C124        C  0.63026257  0.76651804  0.21979574    -0.32100
N125        N  0.62021153  0.74274059  0.25176797     0.14500
C126        C  0.62843980  0.76739724  0.28329973    -0.32100
H127        H  0.62272438  0.75747506  0.31286808     0.16400
C128        C  0.60272758  0.91982225  0.21812668    -0.31000
N129        N  0.58629496  0.93922883  0.25001632     0.13200
C130        C  0.60374312  0.91914820  0.28179155    -0.31000
C131        C  0.73936369  0.88073563  0.22020701    -0.31300
N132        N  0.76141832  0.89375012  0.25229212     0.13700
H133        H  0.74852637  0.88829880  0.19081788     0.16300
C134        C  0.73784698  0.88254272  0.28359070    -0.31300
H135        H  0.74521275  0.89240496  0.31286146     0.16300
H136        H  0.59662332  0.92809469  0.31125153     0.16300
H137        H  0.62667567  0.75551253  0.19030728     0.16400
H138        H  0.59468090  0.92955838  0.18873505     0.16300
C139        C  0.14751659  0.66119677  0.46957984     0.30200
C140        C  0.15217330  0.65961103  0.04937565     0.30200
C141        C  0.13505438  0.70440529  0.49001769    -0.06000
C142        C  0.11836230  0.62827320  0.49000021    -0.06800
C143        C  0.19293207  0.65144969  0.48801536    -0.06700
C144        C  0.13603286  0.70268740  0.03043867    -0.06000
C145        C  0.11959589  0.62773870  0.03036429    -0.06800
C146        C  0.19474260  0.64993063  0.02828706    -0.06700
C147        C  0.11834455  0.74112116  0.04356923    -0.32100
N148        N  0.10986985  0.76775407  0.01284562     0.14500
C149        C  0.12061550  0.74619440  0.48015124    -0.32100
H150        H  0.11736379  0.75996643  0.45128838     0.16400
C151        C  0.08714953  0.59914019  0.04132329    -0.31000
N152        N  0.06896289  0.58193729  0.00887286     0.13200
C153        C  0.08733205  0.59969569  0.47760988    -0.31000
C154        C  0.23568334  0.63523781  0.03951001    -0.31300
N155        N  0.25935423  0.62851444  0.00743365     0.13700
H156        H  0.24682098  0.62780094  0.06877685     0.16300
C157        C  0.23414674  0.63941963  0.47577338    -0.31300
H158        H  0.24449303  0.63613584  0.44620875     0.16300
H159        H  0.07826564  0.59296018  0.44793234     0.16300
H160        H  0.11236153  0.74940579  0.07333966     0.16400
H161        H  0.07733848  0.59148976  0.07049696     0.16300
C162        C  0.15295507  0.66486422  0.29934184     0.30200
C163        C  0.15945817  0.66776937  0.21984583     0.30200
C164        C  0.19762275  0.65110806  0.28273428    -0.06000
C165        C  0.12043236  0.63737805  0.27635773    -0.06800
C166        C  0.14736382  0.71056430  0.28012473    -0.06700
C167        C  0.20024529  0.65199072  0.24254916    -0.06000
C168        C  0.12292644  0.63965043  0.23639280    -0.06800
C169        C  0.14896330  0.71188948  0.23956728    -0.06700
C170        C  0.24115515  0.63697374  0.23298061    -0.32100
N171        N  0.26362475  0.62721108  0.26605657     0.14500
C172        C  0.23809524  0.63684591  0.29658851    -0.32100
H173        H  0.24782565  0.63206523  0.32655767     0.16400
C174        C  0.09032411  0.61375379  0.22176132    -0.31000
N175        N  0.07004928  0.59427447  0.25168939     0.13200
C176        C  0.08771203  0.60871434  0.28523686    -0.31000
C177        C  0.13479539  0.75323620  0.22839646    -0.31300
N178        N  0.12766478  0.77743328  0.26042111     0.13700
H179        H  0.12764844  0.76426083  0.19905385     0.16300
C180        C  0.13649030  0.75204171  0.29204519    -0.31300
H181        H  0.13182175  0.76224475  0.32146535     0.16300
H182        H  0.07808126  0.59835849  0.31381612     0.16300
H183        H  0.25327340  0.63216358  0.20414617     0.16400
H184        H  0.08291318  0.60790823  0.19158327     0.16300
O185        O  0.97665098  0.07835763  0.02828604    -0.74200
O186        O  0.02864498  0.96396755  0.04333398    -0.74300
O187        O  0.06018957  0.04574988  0.03503457    -0.74300
O188        O  0.94589028  0.99587253  0.03657670    -0.74400
O189        O  0.94827574  0.98751797  0.47290123    -0.74300
O190        O  0.06055228  0.03992170  0.47115443    -0.74300
O191        O  0.03182698  0.95692372  0.47945079    -0.74300
O192        O  0.97705040  0.06958811  0.46440652    -0.74300
Ni193      Ni  0.00275947  0.02144888  0.03811368     1.25400
Ni194      Ni  0.00455224  0.01317259  0.46978504     1.25400
C195        C  0.96769192  0.09235775  0.49393676     0.87900
C196        C  0.03878043  0.94156652  0.51370536     0.87900
C197        C  0.07958659  0.05087806  0.00276355     0.87900
C198        C  0.92848862  0.98300434  0.00485916     0.88100
O199        O  0.02974092  0.96578630  0.28784160    -0.74200
O200        O  0.97076351  0.07719340  0.27678979    -0.74300
O201        O  0.94469841  0.99334997  0.28472209    -0.74300
O202        O  0.05593675  0.04907427  0.27965237    -0.74400
O203        O  0.05480451  0.04258151  0.21555910    -0.74300
O204        O  0.94447093  0.98643114  0.22065270    -0.74300
O205        O  0.96999370  0.07019386  0.21272177    -0.74300
O206        O  0.02885437  0.95928502  0.22371450    -0.74300
Ni207      Ni  0.00023333  0.02168952  0.28457054     1.25400
Ni208      Ni  0.99942686  0.01445299  0.21594305     1.25400
C209        C  0.03916566  0.94432618  0.25745487     0.87900
C210        C  0.96095565  0.09214679  0.24290375     0.87900
C211        C  0.92633432  0.98070786  0.25333351     0.87900
C212        C  0.07428837  0.05372396  0.24683539     0.88100
O213        O  0.44930807  0.53364250  0.03581170    -0.74200
O214        O  0.56057020  0.47539789  0.02434465    -0.74300
O215        O  0.53245549  0.55942174  0.02842103    -0.74300
O216        O  0.47633718  0.44956843  0.03268134    -0.74400
O217        O  0.46847206  0.44921629  0.46870504    -0.74300
O218        O  0.52454197  0.56058737  0.46420887    -0.74300
O219        O  0.55128885  0.47684206  0.46005451    -0.74300
O220        O  0.44057561  0.53422687  0.47142108    -0.74300
Ni221      Ni  0.50500976  0.50432385  0.03257074     1.25400
Ni222      Ni  0.49570243  0.50530439  0.46381806     1.25400
C223        C  0.42674476  0.54364374  0.50507136     0.87900
C224        C  0.57427749  0.46722854  0.49016012     0.87900
C225        C  0.53825945  0.57830876  0.99584879     0.87900
C226        C  0.46387779  0.43059214  0.00182594     0.88100
O227        O  0.56192567  0.46832855  0.27983055    -0.74200
O228        O  0.45249670  0.52870720  0.29275457    -0.74300
O229        O  0.47690093  0.44394140  0.28641716    -0.74300
O230        O  0.53658222  0.55313057  0.28541697    -0.74400
O231        O  0.52710658  0.55691158  0.22152826    -0.74300
O232        O  0.47003456  0.44666750  0.22263628    -0.74300
O233        O  0.44303363  0.53122112  0.22869463    -0.74300
O234        O  0.55342908  0.47317045  0.21578422    -0.74300
Ni235      Ni  0.50731053  0.49824250  0.28839520     1.25400
Ni236      Ni  0.49797582  0.50213445  0.21992709     1.25400
C237        C  0.57623660  0.46200268  0.24571054     0.87900
C238        C  0.42979012  0.53980300  0.26277370     0.87900
C239        C  0.46389725  0.42674352  0.25475784     0.87900
C240        C  0.54133913  0.57326897  0.25310224     0.88100
C241        C  0.34370049  0.62882639  0.27281903    -0.01700
C242        C  0.30521501  0.60506681  0.26797831     0.08000
C243        C  0.30757306  0.55949129  0.26424838    -0.01800
C244        C  0.34841957  0.53807352  0.26316454    -0.01800
C245        C  0.38707659  0.56194124  0.26732807     0.08200
C246        C  0.38449920  0.60706061  0.27435152    -0.02000
Br247      Br  0.43626642  0.63862065  0.28783114    -0.00500
Br248      Br  0.33997292  0.69133191  0.27519436    -0.00600
Br249      Br  0.35147864  0.47578288  0.25756082    -0.00500
Br250      Br  0.25466852  0.52666554  0.26062220    -0.00500
C251        C  0.06240306  0.82333163  0.24642863    -0.01700
C252        C  0.10543528  0.81921279  0.26112528     0.08000
C253        C  0.12551752  0.85571702  0.27783025    -0.01800
C254        C  0.10351822  0.89654339  0.27794334    -0.01800
C255        C  0.06143836  0.90110741  0.26087554     0.08200
C256        C  0.04082713  0.86411269  0.24569607    -0.02000
Br257      Br  0.98200572  0.86873102  0.22518870    -0.00500
Br258      Br  0.03172961  0.77221447  0.22990474    -0.00600
Br259      Br  0.13165290  0.94630669  0.30038329    -0.00500
Br260      Br  0.18341885  0.84968392  0.29994326    -0.00500
C261        C  0.11044469  0.68076957  0.40354416    -0.01700
C262        C  0.14353929  0.65800912  0.42506699     0.08000
C263        C  0.16372226  0.62310362  0.40504689    -0.01800
C264        C  0.16443314  0.62382889  0.36424443    -0.01800
C265        C  0.14639291  0.66008461  0.34338799     0.08200
C266        C  0.11228740  0.68254107  0.36265997    -0.02000
Br267      Br  0.06148883  0.70483236  0.33425555    -0.00500
Br268      Br  0.05566622  0.69564024  0.42764329    -0.00600
Br269      Br  0.17785380  0.56988118  0.33810405    -0.00500
Br270      Br  0.18029515  0.56915162  0.43153706    -0.00500
C271        C  0.15978532  0.62136670  0.11619583    -0.01700
C272        C  0.15946389  0.66024992  0.09369441     0.08000
C273        C  0.17874352  0.69690537  0.11199280    -0.01800
C274        C  0.18086724  0.69919231  0.15282542    -0.01800
C275        C  0.16471493  0.66455055  0.17555087     0.08200
C276        C  0.16285332  0.62344931  0.15692027    -0.02000
Br277      Br  0.17332544  0.56946872  0.18557210    -0.00500
Br278      Br  0.16728815  0.56513478  0.09222821    -0.00600
Br279      Br  0.21721175  0.74298465  0.17627815    -0.00500
Br280      Br  0.21183752  0.73900930  0.08260019    -0.00500
C281        C  0.33919947  0.63219181  0.50616361    -0.01700
C282        C  0.30118835  0.60724469  0.50687461     0.08000
C283        C  0.30472023  0.56154670  0.00955288    -0.01800
C284        C  0.34597273  0.54081491  0.00943647    -0.01800
C285        C  0.38384191  0.56566921  0.50833464     0.08200
C286        C  0.38052774  0.61154498  0.50830222    -0.02000
Br287      Br  0.43223265  0.64598251  0.51338244    -0.00500
Br288      Br  0.33379373  0.69461534  0.50210995    -0.00600
Br289      Br  0.35046979  0.47814137  0.01136564    -0.00500
Br290      Br  0.25265940  0.52751646  0.01339449    -0.00500
C291        C  0.10285293  0.88962982  0.51205726    -0.01700
C292        C  0.05807737  0.89708497  0.51850418     0.08000
C293        C  0.03150521  0.86148294  0.02722628    -0.01800
C294        C  0.04864692  0.81862431  0.02567469    -0.01800
C295        C  0.09207449  0.81108207  0.51528360     0.08200
C296        C  0.11961358  0.84676540  0.50982565    -0.02000
Br297      Br  0.18077214  0.83625825  0.50127253    -0.00500
Br298      Br  0.14198336  0.93790111  0.51050977    -0.00600
Br299      Br  0.01251267  0.76962563  0.03781848    -0.00500
Br300      Br  0.97222635  0.87121084  0.04299448    -0.00500
C301        C  0.60145261  0.62384595  0.27375945    -0.01700
C302        C  0.56267806  0.61647765  0.25214873     0.08000
C303        C  0.54375055  0.65108453  0.22997810    -0.01800
C304        C  0.56190215  0.69286449  0.23119880    -0.01800
C305        C  0.60096623  0.70009026  0.25206163     0.08200
C306        C  0.62078230  0.66532513  0.27322385    -0.02000
Br307      Br  0.67532779  0.67413423  0.30044516    -0.00500
Br308      Br  0.63003068  0.57673287  0.30231295    -0.00600
Br309      Br  0.53059617  0.74106305  0.20708886    -0.00500
Br310      Br  0.49203771  0.64254932  0.19826657    -0.00500
C311        C  0.83777655  0.89949745  0.27579492    -0.01700
C312        C  0.80237727  0.91631977  0.25327640     0.08000
C313        C  0.80778981  0.95488664  0.23140543    -0.01800
C314        C  0.84872941  0.97503786  0.23045921    -0.01800
C315        C  0.88343623  0.95930676  0.25437906     0.08200
C316        C  0.87742682  0.92200466  0.27781380    -0.02000
Br317      Br  0.92406760  0.89999270  0.31124989    -0.00500
Br318      Br  0.83370555  0.84346331  0.30109651    -0.00600
Br319      Br  0.85675230  0.02446066  0.19628761    -0.00500
Br320      Br  0.75862270  0.98176448  0.20445768    -0.00500
C321        C  0.61849117  0.85311255  0.39550034    -0.01700
C322        C  0.65875941  0.84967129  0.41648965     0.08000
C323        C  0.69366615  0.82899805  0.39686460    -0.01800
C324        C  0.69307043  0.82728654  0.35614071    -0.01800
C325        C  0.65740081  0.84576618  0.33474244     0.08200
C326        C  0.61782691  0.85035238  0.35488471    -0.02000
Br327      Br  0.56220750  0.84176138  0.32870370    -0.00500
Br328      Br  0.56286092  0.85148809  0.42115149    -0.00600
Br329      Br  0.73544071  0.78993962  0.33134080    -0.00500
Br330      Br  0.73664951  0.79313548  0.42461737    -0.00500
C331        C  0.69390125  0.82628267  0.10604013    -0.01700
C332        C  0.65823859  0.84493846  0.08455624     0.08000
C333        C  0.61816140  0.84775943  0.10429412    -0.01800
C334        C  0.61784991  0.84837303  0.14505244    -0.01800
C335        C  0.65759331  0.84483216  0.16663303     0.08200
C336        C  0.69336016  0.82580705  0.14691695    -0.02000
Br337      Br  0.73638704  0.78963411  0.17437223    -0.00500
Br338      Br  0.73855385  0.79203503  0.08078888    -0.00600
Br339      Br  0.56199332  0.84435769  0.16993567    -0.00500
Br340      Br  0.56320347  0.84019188  0.07693342    -0.00500
C341        C  0.56466530  0.69580370  0.47009175    -0.01700
C342        C  0.60075696  0.70385655  0.99540486     0.08000
C343        C  0.61689390  0.66990217  0.01963528    -0.01800
C344        C  0.59525151  0.62981461  0.02137149    -0.01800
C345        C  0.56067306  0.62103531  0.99485231     0.08200
C346        C  0.54677409  0.65391755  0.46787657    -0.02000
Br347      Br  0.50227810  0.64354076  0.42876757    -0.00500
Br348      Br  0.53682269  0.74257113  0.44089289    -0.00600
Br349      Br  0.61453640  0.58771144  0.06040561    -0.00500
Br350      Br  0.67077474  0.67704314  0.04850394    -0.00500
C351        C  0.80901818  0.95835341  0.52437681    -0.01700
C352        C  0.80339405  0.91992846  0.00373953     0.08000
C353        C  0.83896297  0.90189379  0.98385758    -0.01800
C354        C  0.87899191  0.92356120  0.98273364    -0.01800
C355        C  0.88541228  0.96141422  0.00494530     0.08200
C356        C  0.85036027  0.97789358  0.52667592    -0.02000
Br357      Br  0.85772209  0.02820733  0.55900306    -0.00500
Br358      Br  0.75933650  0.98615307  0.54769941    -0.00600
Br359      Br  0.92500009  0.89949191  0.95136768    -0.00500
Br360      Br  0.83421229  0.84538098  0.96065168    -0.00500
C361        C  0.50709503  0.95468378  0.25201280    -0.01700
C362        C  0.55030529  0.96985703  0.25080644     0.08000
C363        C  0.55799017  0.01480763  0.25289347    -0.01800
C364        C  0.52269004  0.04446042  0.25596175    -0.01800
C365        C  0.47961322  0.02919522  0.25786765     0.08200
C366        C  0.47187082  0.98432166  0.25536375    -0.02000
Br367      Br  0.41265722  0.96424777  0.25512773    -0.00500
Br368      Br  0.49635935  0.89323816  0.24907617    -0.00600
Br369      Br  0.53271319  0.10617969  0.25625894    -0.00500
Br370      Br  0.61700285  0.03515079  0.25149070    -0.00500
C371        C  0.39388676  0.32858671  0.22593252    -0.01700
C372        C  0.40764587  0.29671233  0.25356751     0.08000
C373        C  0.43855434  0.30880730  0.28228216    -0.01800
C374        C  0.45269223  0.35212020  0.28511524    -0.01800
C375        C  0.44259720  0.38284019  0.25518058     0.08200
C376        C  0.41332975  0.37016205  0.22507309    -0.02000
Br377      Br  0.39796523  0.40898484  0.18228252    -0.00500
Br378      Br  0.34609639  0.31698780  0.19060734    -0.00600
Br379      Br  0.48628217  0.36726265  0.33093808    -0.00500
Br380      Br  0.46687733  0.26592689  0.31565838    -0.00500
C381        C  0.19632635  0.05730541  0.23018453    -0.01700
C382        C  0.20816621  0.09624343  0.24871925     0.08000
C383        C  0.17496874  0.12221315  0.26502254    -0.01800
C384        C  0.13118403  0.10858299  0.26438005    -0.01800
C385        C  0.11957618  0.07004029  0.24532456     0.08200
C386        C  0.15219980  0.04530533  0.22691503    -0.02000
Br387      Br  0.13715427  0.99370816  0.19830654    -0.00500
Br388      Br  0.24045463  0.01759944  0.21276799    -0.00600
Br389      Br  0.08672639  0.14392470  0.28820220    -0.00500
Br390      Br  0.18863669  0.17767644  0.28661986    -0.00500
C391        C  0.51055543  0.95874496  0.50245649    -0.01700
C392        C  0.55373782  0.97360272  0.49981008     0.08000
C393        C  0.56149039  0.01856752  0.99591190    -0.01800
C394        C  0.52632111  0.04861760  0.99638238    -0.01800
C395        C  0.48326118  0.03352549  0.50013494     0.08200
C396        C  0.47547163  0.98870199  0.50303602    -0.02000
Br397      Br  0.41644026  0.96900866  0.50789540    -0.00500
Br398      Br  0.49942910  0.89729090  0.50361900    -0.00600
Br399      Br  0.53678924  0.11015635  0.99313154    -0.00500
Br400      Br  0.62031865  0.03813403  0.98946576    -0.00500
C401        C  0.33028322  0.17210631  0.39929198    -0.01700
C402        C  0.36661171  0.15464220  0.42038552     0.08000
C403        C  0.40591457  0.15216224  0.39961648    -0.01800
C404        C  0.40463541  0.14897570  0.35889674    -0.01800
C405        C  0.36380772  0.14911012  0.33842774     0.08200
C406        C  0.32880273  0.16919345  0.35844444    -0.02000
Br407      Br  0.28546162  0.20409514  0.33086940    -0.00500
Br408      Br  0.28927633  0.21077779  0.42435680    -0.00600
Br409      Br  0.45934425  0.15556670  0.33238340    -0.00500
Br410      Br  0.46095551  0.16517491  0.42501927    -0.00500
C411        C  0.35016181  0.10183956  0.14954817    -0.01700
C412        C  0.36995024  0.13636025  0.17009302     0.08000
C413        C  0.40483305  0.15645218  0.15036275    -0.01800
C414        C  0.40563374  0.15569225  0.10954967    -0.01800
C415        C  0.37112061  0.13613016  0.08859161     0.08200
C416        C  0.35018888  0.10198310  0.10867125    -0.02000
Br417      Br  0.33421240  0.04916772  0.08207584    -0.00500
Br418      Br  0.33754616  0.04780502  0.17587662    -0.00600
Br419      Br  0.45992567  0.16771846  0.08410041    -0.00500
Br420      Br  0.45753573  0.17317926  0.17784804    -0.00500
C421        C  0.44027718  0.31495522  0.03810554    -0.01700
C422        C  0.40790922  0.30101793  0.01142735     0.08000
C423        C  0.39194183  0.33106228  0.48297818    -0.01800
C424        C  0.41179339  0.37195700  0.47807554    -0.01800
C425        C  0.44431675  0.38615614  0.00494151     0.08200
C426        C  0.45744715  0.35731207  0.03555915    -0.02000
Br427      Br  0.50186712  0.37328316  0.07337133    -0.00500
Br428      Br  0.46400255  0.27665413  0.07780149    -0.00600
Br429      Br  0.39422865  0.40737272  0.43370733    -0.00500
Br430      Br  0.34026549  0.31831054  0.45271556    -0.00500
C431        C  0.15523984  0.05308415  0.97448532    -0.01700
C432        C  0.12481197  0.06863464  0.00181805     0.08000
C433        C  0.13846871  0.10062095  0.52828481    -0.01800
C434        C  0.18077449  0.11794951  0.52622210    -0.01800
C435        C  0.21201188  0.09984822  0.00148983     0.08200
C436        C  0.19904762  0.06643056  0.97617621    -0.02000
Br437      Br  0.24153768  0.03567057  0.94562870    -0.00500
Br438      Br  0.13868721  0.01269670  0.93434743    -0.00600
Br439      Br  0.19438904  0.16941639  0.55538401    -0.00500
Br440      Br  0.09997027  0.12256307  0.56754861    -0.00500
C441        C  0.01975409  0.48378202  0.24888119    -0.01700
C442        C  0.97641823  0.49475276  0.23824549     0.08000
C443        C  0.96409071  0.53869666  0.23255967    -0.01800
C444        C  0.99495473  0.57167779  0.23776028    -0.01800
C445        C  0.03828463  0.56071438  0.24802836     0.08200
C446        C  0.05082987  0.51672020  0.25327277    -0.02000
Br447      Br  0.11081372  0.50193013  0.26537792    -0.00500
Br448      Br  0.03612983  0.42355164  0.25709470    -0.00600
Br449      Br  0.97828781  0.63211197  0.23210253    -0.00500
Br450      Br  0.90453577  0.55325284  0.21888498    -0.00500
C451        C  0.96541285  0.16927668  0.21956928    -0.01700
C452        C  0.94148784  0.13662554  0.23839477     0.08000
C453        C  0.90065144  0.14755033  0.25434211    -0.01800
C454        C  0.88438364  0.19088923  0.25182406    -0.01800
C455        C  0.90946765  0.22389199  0.23467125     0.08200
C456        C  0.95051688  0.21285549  0.21944121    -0.02000
Br457      Br  0.98916748  0.25784812  0.20286100    -0.00500
Br458      Br  0.01955757  0.15473124  0.19464708    -0.00600
Br459      Br  0.82758527  0.20530484  0.27149152    -0.00500
Br460      Br  0.86611303  0.10294311  0.27811418    -0.00500
C461        C  0.65201821  0.47042780  0.22202701    -0.01700
C462        C  0.62096279  0.44438132  0.24061134     0.08000
C463        C  0.63356737  0.40296359  0.25540086    -0.01800
C464        C  0.67692855  0.38773349  0.25145834    -0.01800
C465        C  0.70825523  0.41431689  0.23381491     0.08200
C466        C  0.69564795  0.45607939  0.21988677    -0.02000
Br467      Br  0.73873237  0.49613483  0.20213122    -0.00500
Br468      Br  0.63556138  0.52711550  0.20105859    -0.00600
Br469      Br  0.69368220  0.33035331  0.26998022    -0.00500
Br470      Br  0.59123907  0.36652810  0.27991790    -0.00500
C471        C  0.01482373  0.47468415  0.49261121    -0.01700
C472        C  0.97084392  0.48798431  0.99137289     0.08000
C473        C  0.95904837  0.53178100  0.99714634    -0.01800
C474        C  0.99151175  0.56280707  0.00404150    -0.01800
C475        C  0.03563947  0.54973746  0.00647509     0.08200
C476        C  0.04719242  0.50542299  0.50075871    -0.02000
Br477      Br  0.10768458  0.48793599  0.50389068    -0.00500
Br478      Br  0.03023698  0.41492501  0.48251347    -0.00600
Br479      Br  0.97630586  0.62346957  0.00885010    -0.00500
Br480      Br  0.89833595  0.54862997  0.99483374    -0.00500
C481        C  0.84603897  0.41533347  0.33751627    -0.01700
C482        C  0.86879709  0.38202954  0.31758755     0.08000
C483        C  0.90297473  0.36086401  0.33905682    -0.01800
C484        C  0.90173006  0.35970640  0.37984135    -0.01800
C485        C  0.86641730  0.37990465  0.39921067     0.08200
C486        C  0.84521376  0.41439013  0.37828816    -0.02000
Br487      Br  0.82648102  0.46661192  0.40437779    -0.00500
Br488      Br  0.82559220  0.46804066  0.31087601    -0.00600
Br489      Br  0.95424894  0.34150422  0.40784913    -0.00500
Br490      Br  0.95704930  0.34428214  0.31440218    -0.00500
C491        C  0.90200196  0.36258925  0.12889473    -0.01700
C492        C  0.86810384  0.38322133  0.14920385     0.08000
C493        C  0.84374923  0.41465333  0.12758938    -0.01800
C494        C  0.84000432  0.41129289  0.08695126    -0.01800
C495        C  0.86228160  0.37697017  0.06747624     0.08200
C496        C  0.89898346  0.35882206  0.08827793    -0.02000
Br497      Br  0.95111658  0.33980732  0.06205237    -0.00500
Br498      Br  0.95789103  0.35253361  0.15438818    -0.00600
Br499      Br  0.81478516  0.46109599  0.05916416    -0.00500
Br500      Br  0.82942956  0.46956487  0.15117715    -0.00500
C501        C  0.88234024  0.18287905  0.97824722    -0.01700
C502        C  0.90754530  0.21987604  0.48275935     0.08000
C503        C  0.95313499  0.21527713  0.48705241    -0.01800
C504        C  0.97275959  0.17359904  0.48975469    -0.01800
C505        C  0.94698883  0.13604422  0.48823644     0.08200
C506        C  0.90194469  0.14094943  0.98062350    -0.02000
Br507      Br  0.86724710  0.09013631  0.97188366    -0.00500
Br508      Br  0.82073814  0.18987359  0.96810590    -0.00600
Br509      Br  0.03526915  0.16797180  0.49278670    -0.00500
Br510      Br  0.98877899  0.26634521  0.48783407    -0.00500
C511        C  0.69666171  0.45800414  0.97640773    -0.01700
C512        C  0.70346431  0.41250907  0.47899659     0.08000
C513        C  0.66760759  0.38484097  0.48345558    -0.01800
C514        C  0.62499371  0.40252767  0.48608885    -0.01800
C515        C  0.61832597  0.44803863  0.48523623     0.08200
C516        C  0.65419370  0.47562546  0.97870991    -0.02000
Br517      Br  0.64468538  0.53731880  0.97106720    -0.00500
Br518      Br  0.74545991  0.49631908  0.97168691    -0.00600
Br519      Br  0.57550768  0.36469903  0.48874399    -0.00500
Br520      Br  0.67747573  0.32290902  0.48632737    -0.00500
C521        C  0.85895735  0.37297776  0.52293498     0.30200
C522        C  0.86193229  0.37565586  0.94334270     0.30200
C523        C  0.81487794  0.38232787  0.50171058    -0.06000
C524        C  0.88950122  0.40582737  0.50456997    -0.06800
C525        C  0.87159628  0.32952458  0.50328283    -0.06700
C526        C  0.81646687  0.38431402  0.96122115    -0.06000
C527        C  0.89157527  0.40729094  0.96477486    -0.06800
C528        C  0.87310359  0.33103309  0.96285754    -0.06700
C529        C  0.77399127  0.39191123  0.94819464    -0.32100
N530        N  0.74760647  0.39512891  0.97929916     0.14500
C531        C  0.77173303  0.38752889  0.51178421    -0.32100
H532        H  0.75909660  0.38788147  0.54086276     0.16400
C533        C  0.92185837  0.43831534  0.95489494    -0.31000
N534        N  0.93754834  0.45542207  0.48805116     0.13200
C535        C  0.91815355  0.43615537  0.51844748    -0.31000
C536        C  0.88211200  0.28902077  0.95100242    -0.31300
N537        N  0.88814431  0.26305417  0.98272480     0.13700
H538        H  0.88562851  0.27828724  0.92154335     0.16300
C539        C  0.88029977  0.28682733  0.51456373    -0.31300
H540        H  0.88267470  0.27440572  0.54394997     0.16300
H541        H  0.92497630  0.44337817  0.54847582     0.16300
H542        H  0.76318034  0.39620682  0.91850941     0.16400
H543        H  0.93186649  0.44723152  0.92604450     0.16300
C544        C  0.86634311  0.38072328  0.69369081     0.30200
C545        C  0.86651728  0.37927640  0.77325673     0.30200
C546        C  0.87886028  0.33646202  0.71343176    -0.06000
C547        C  0.89676774  0.41297582  0.71401167    -0.06800
C548        C  0.82163068  0.38955550  0.71282324    -0.06700
C549        C  0.87878611  0.33580551  0.75385409    -0.06000
C550        C  0.89661002  0.41193701  0.75401920    -0.06800
C551        C  0.82195945  0.38851586  0.75322347    -0.06700
C552        C  0.88747620  0.29334844  0.76566885    -0.32100
N553        N  0.89439439  0.26861389  0.73405115     0.14500
C554        C  0.88807671  0.29427560  0.70203874    -0.32100
H555        H  0.89040313  0.28298176  0.67263678     0.16400
C556        C  0.92616508  0.44188187  0.76701231    -0.31000
N557        N  0.94442169  0.46110986  0.73595565     0.13200
C558        C  0.92675274  0.44400178  0.70332381    -0.31000
C559        C  0.77943819  0.39400653  0.76478977    -0.31300
N560        N  0.75347799  0.40025148  0.73309584     0.13700
H561        H  0.76815408  0.39465325  0.79429894     0.16300
C562        C  0.77853807  0.39634211  0.70115732    -0.31300
H563        H  0.76627236  0.39897820  0.67176046     0.16300
H564        H  0.93533168  0.45323833  0.67414973     0.16300
H565        H  0.88932553  0.28129824  0.79518344     0.16400
H566        H  0.93408602  0.44907679  0.79682869     0.16300
C567        C  0.36724011  0.14146901  0.54429890     0.30200
C568        C  0.36625903  0.14896154  0.96484687     0.30200
C569        C  0.37699390  0.18714200  0.52720740    -0.06000
C570        C  0.39871832  0.11123305  0.52290227    -0.06800
C571        C  0.32310509  0.13229619  0.52394650    -0.06700
C572        C  0.37826203  0.19018908  0.98717590    -0.06000
C573        C  0.39766117  0.11412683  0.98272788    -0.06800
C574        C  0.32281384  0.13546257  0.98366528    -0.06700
C575        C  0.39017433  0.23193730  0.97760752    -0.32100
N576        N  0.39366550  0.25571359  0.51034001     0.14500
C577        C  0.38429880  0.22877668  0.54071869    -0.32100
H578        H  0.38266733  0.23850746  0.57057110     0.16400
C579        C  0.42724919  0.08328458  0.96991392    -0.31000
N580        N  0.44735590  0.06395764  0.50112640     0.13200
C581        C  0.42973806  0.08027395  0.53359195    -0.31000
C582        C  0.28167117  0.12362460  0.97124507    -0.31300
N583        N  0.25674780  0.11437310  0.50230238     0.13700
H584        H  0.27055970  0.12177324  0.94153785     0.16300
C585        C  0.28171023  0.12032380  0.53458387    -0.31300
H586        H  0.27076138  0.11511152  0.56383384     0.16300
H587        H  0.43938363  0.07078953  0.56277344     0.16300
H588        H  0.39623401  0.24384657  0.94864490     0.16400
H589        H  0.43463419  0.07595654  0.94021403     0.16300
C590        C  0.36194813  0.14311460  0.79390851     0.30200
C591        C  0.36502444  0.14056665  0.71427625     0.30200
C592        C  0.37246015  0.18601000  0.77281097    -0.06000
C593        C  0.39429070  0.10946592  0.77642677    -0.06800
C594        C  0.31897648  0.12962156  0.77302475    -0.06700
C595        C  0.37442036  0.18518935  0.73282697    -0.06000
C596        C  0.39619249  0.10965195  0.73633720    -0.06800
C597        C  0.32019331  0.12964820  0.73245966    -0.06700
C598        C  0.38562111  0.22697386  0.72115702    -0.32100
N599        N  0.39056493  0.25268998  0.75278271     0.14500
C600        C  0.38079573  0.22792623  0.78421215    -0.32100
H601        H  0.38038051  0.23932204  0.81362183     0.16400
C602        C  0.42700696  0.07941105  0.72561355    -0.31000
N603        N  0.44363509  0.05980573  0.75784362     0.13200
C604        C  0.42315790  0.07663235  0.78903548    -0.31000
C605        C  0.27886422  0.11848353  0.71943790    -0.31300
N606        N  0.25341392  0.10958884  0.75036293     0.13700
H607        H  0.26813302  0.11643506  0.68960838     0.16300
C608        C  0.27775888  0.11570370  0.78309016    -0.31300
H609        H  0.26617367  0.11056862  0.81217008     0.16300
H610        H  0.42988203  0.06671250  0.81869431     0.16300
H611        H  0.39159309  0.23730378  0.69175642     0.17200
H612        H  0.43703020  0.07238461  0.69651261     0.16300
C613        C  0.66006749  0.85351914  0.96084140     0.30200
C614        C  0.65953189  0.85031707  0.54018396     0.30200
C615        C  0.70407977  0.86237443  0.98114988    -0.06000
C616        C  0.63153334  0.88854551  0.98037906    -0.06800
C617        C  0.64580274  0.81087151  0.97957907    -0.06700
C618        C  0.70406212  0.86028951  0.52163849    -0.06000
C619        C  0.63110793  0.88681135  0.52073787    -0.06800
C620        C  0.64468468  0.80930905  0.51929207    -0.06700
C621        C  0.73988281  0.88357756  0.53402635    -0.32100
N622        N  0.76198465  0.89822072  0.00302332     0.14500
C623        C  0.73919660  0.88731503  0.97077288    -0.32100
H624        H  0.74692048  0.89794921  0.94172776     0.16400
C625        C  0.60507471  0.92117777  0.53234312    -0.31000
N626        N  0.58937692  0.94285873  0.00051694     0.13200
C627        C  0.60674249  0.92441135  0.96877989    -0.31000
C628        C  0.62781082  0.76950031  0.52963160    -0.31300
N629        N  0.62001480  0.74647538  0.99706074     0.13700
H630        H  0.62101570  0.75851870  0.55872346     0.16300
C631        C  0.63160202  0.77135131  0.96632828    -0.31300
H632        H  0.62917683  0.76171137  0.93639439     0.16300
H633        H  0.60013276  0.93526292  0.93938520     0.16300
H634        H  0.74842016  0.89075387  0.56368609     0.16400
H635        H  0.59669656  0.92908014  0.56173340     0.16300
C636        C  0.65813475  0.84942373  0.79049302     0.30200
C637        C  0.65833182  0.84920671  0.71105058     0.30200
C638        C  0.64377845  0.80736743  0.77112940    -0.06000
C639        C  0.62948666  0.88481112  0.77026477    -0.06800
C640        C  0.70221715  0.85916884  0.77170378    -0.06700
C641        C  0.64425457  0.80707949  0.73125534    -0.06000
C642        C  0.62924859  0.88495182  0.72982190    -0.06800
C643        C  0.70257168  0.85871381  0.73121300    -0.06700
C644        C  0.63042149  0.76658240  0.71988942    -0.32100
N645        N  0.62039861  0.74282360  0.75187937     0.14500
C646        C  0.62858447  0.76752748  0.78339379    -0.32100
H647        H  0.62287445  0.75762724  0.81296875     0.16400
C648        C  0.60272057  0.91988168  0.71806244    -0.31000
N649        N  0.58632275  0.93935362  0.74993265     0.13200
C650        C  0.60378986  0.91933657  0.78172807    -0.31000
C651        C  0.73932012  0.88095246  0.72016325    -0.31300
N652        N  0.76137135  0.89403463  0.75222123     0.13700
H653        H  0.74847188  0.88846595  0.69076158     0.16300
C654        C  0.73783211  0.88284794  0.78354688    -0.31300
H655        H  0.74521629  0.89274108  0.81280559     0.16300
H656        H  0.59671849  0.92836488  0.81117759     0.16300
H657        H  0.62684224  0.75554478  0.69041011     0.16400
H658        H  0.59466778  0.92957553  0.68866143     0.16300
C659        C  0.14782767  0.66146625  0.96959536     0.30200
C660        C  0.15197062  0.65930277  0.54935940     0.30200
C661        C  0.13545829  0.70472422  0.98999729    -0.06000
C662        C  0.11856424  0.62863480  0.99000007    -0.06800
C663        C  0.19319626  0.65161200  0.98808630    -0.06700
C664        C  0.13566001  0.70233775  0.53045646    -0.06000
C665        C  0.11946198  0.62734529  0.53036760    -0.06800
C666        C  0.19454228  0.64976675  0.52821449    -0.06700
C667        C  0.11792336  0.74073785  0.54362024    -0.32100
N668        N  0.10942881  0.76739661  0.51291750     0.14500
C669        C  0.12104611  0.74651344  0.98009510    -0.32100
H670        H  0.11775323  0.76023837  0.95121817     0.16400
C671        C  0.08703684  0.59873466  0.54135185    -0.31000
N672        N  0.06879262  0.58155722  0.50891498     0.13200
C673        C  0.08756262  0.60004244  0.97758413    -0.31000
C674        C  0.23553498  0.63516612  0.53938147    -0.31300
N675        N  0.25917201  0.62848966  0.50727452     0.13700
H676        H  0.24672090  0.62771861  0.56863243     0.16300
C677        C  0.23441415  0.63952205  0.97590206    -0.31300
H678        H  0.24482513  0.63627487  0.94635263     0.16300
H679        H  0.07856876  0.59326025  0.94789963     0.16300
H680        H  0.11198991  0.74900941  0.57340148     0.16400
H681        H  0.07725780  0.59108145  0.57053414     0.16300
C682        C  0.15305645  0.66482527  0.79932923     0.30200
C683        C  0.15950487  0.66760838  0.71982452     0.30200
C684        C  0.19775616  0.65118119  0.78271487    -0.06000
C685        C  0.12060832  0.63718267  0.77640492    -0.06800
C686        C  0.14731639  0.71047314  0.78004890    -0.06700
C687        C  0.20034988  0.65199671  0.74252608    -0.06000
C688        C  0.12308436  0.63939133  0.73643435    -0.06800
C689        C  0.14888884  0.71173137  0.73949157    -0.06700
C690        C  0.24127746  0.63704091  0.73295419    -0.32100
N691        N  0.26378664  0.62738051  0.76603069     0.14500
C692        C  0.23826689  0.63702987  0.79656424    -0.32100
H693        H  0.24802496  0.63230772  0.82653338     0.16400
C694        C  0.09058105  0.61334847  0.72184666    -0.31000
N695        N  0.07038254  0.59384217  0.75180453     0.13200
C696        C  0.08798990  0.60841140  0.78532870    -0.31000
C697        C  0.13477129  0.75307666  0.72827552    -0.31300
N698        N  0.12768287  0.77733307  0.76027152     0.13700
H699        H  0.12765227  0.76407539  0.69892229     0.16300
C700        C  0.13648358  0.75197984  0.79192364    -0.31300
H701        H  0.13186400  0.76224171  0.82133523     0.16300
H702        H  0.07837303  0.59809489  0.81393059     0.16300
H703        H  0.25337454  0.63217852  0.70412163     0.16400
H704        H  0.08316433  0.60745214  0.69168492     0.16300
O705        O  0.97657248  0.07816780  0.52830449    -0.74200
O706        O  0.02869579  0.96383792  0.54342286    -0.74300
O707        O  0.06016500  0.04564755  0.53501731    -0.74300
O708        O  0.94589194  0.99564706  0.53666044    -0.74400
O709        O  0.94825492  0.98779433  0.97281398    -0.74300
O710        O  0.06061538  0.04008833  0.97116182    -0.74300
O711        O  0.03179018  0.95711597  0.97935541    -0.74300
O712        O  0.97715114  0.06983312  0.96438033    -0.74300
Ni713      Ni  0.00275027  0.02129182  0.53815884     1.25400
Ni714      Ni  0.00457807  0.01339245  0.96973171     1.25400
C715        C  0.96781644  0.09258727  0.99392235     0.87900
C716        C  0.03873592  0.94172916  0.01359892     0.87900
C717        C  0.07954293  0.05075152  0.50273088     0.87900
C718        C  0.92851572  0.98272531  0.50494546     0.88100
O719        O  0.02990582  0.96575755  0.78742263    -0.74200
O720        O  0.97075964  0.07706816  0.77641655    -0.74300
O721        O  0.94483512  0.99320089  0.78430115    -0.74300
O722        O  0.05596540  0.04909755  0.77927530    -0.74400
O723        O  0.05482895  0.04266026  0.71517684    -0.74300
O724        O  0.94462470  0.98629598  0.72022968    -0.74300
O725        O  0.96998748  0.07010551  0.71234368    -0.74300
O726        O  0.02905088  0.95929053  0.72329226    -0.74300
Ni727      Ni  0.00031574  0.02161581  0.78417304     1.25400
Ni728      Ni  0.99952220  0.01441709  0.71554053     1.25400
C729        C  0.03936221  0.94432220  0.75703090     0.87900
C730        C  0.96092734  0.09202545  0.74253856     0.87900
C731        C  0.92648685  0.98056176  0.75290679     0.87900
C732        C  0.07429700  0.05380782  0.74645700     0.88100
O733        O  0.44903761  0.53351482  0.53559253    -0.74200
O734        O  0.56028449  0.47530817  0.52417491    -0.74300
O735        O  0.53217057  0.55932926  0.52816701    -0.74300
O736        O  0.47606678  0.44947282  0.53251917    -0.74400
O737        O  0.46872341  0.44939924  0.96886254    -0.74300
O738        O  0.52485150  0.56070670  0.96445959    -0.74300
O739        O  0.55154441  0.47697477  0.96022857    -0.74300
O740        O  0.44086921  0.53443213  0.97163980    -0.74300
Ni741      Ni  0.50473400  0.50422630  0.53236540     1.25400
Ni742      Ni  0.49597767  0.50546707  0.96402267     1.25400
C743        C  0.42703190  0.54383427  0.00529160     0.87900
C744        C  0.57455043  0.46733788  0.99031676     0.87900
C745        C  0.53796253  0.57820974  0.49558868     0.87900
C746        C  0.46360045  0.43045621  0.50168792     0.88100
O747        O  0.56198797  0.46833644  0.78008144    -0.74200
O748        O  0.45260232  0.52888070  0.79280668    -0.74300
O749        O  0.47691295  0.44404695  0.78658237    -0.74300
O750        O  0.53672157  0.55320283  0.78554689    -0.74400
O751        O  0.52731258  0.55694463  0.72165131    -0.74300
O752        O  0.47016890  0.44671213  0.72279549    -0.74300
O753        O  0.44322647  0.53131447  0.72873703    -0.74300
O754        O  0.55359751  0.47314913  0.71602563    -0.74300
Ni755      Ni  0.50738676  0.49833471  0.78854560     1.25400
Ni756      Ni  0.49815705  0.50216711  0.72006939     1.25400
C757        C  0.57634565  0.46196508  0.74598363     0.87900
C758        C  0.42995352  0.53997193  0.76279047     0.87900
C759        C  0.46395220  0.42681768  0.75491937     0.87900
C760        C  0.54151148  0.57332825  0.75322728     0.88100
C761        C  0.34386582  0.62903749  0.77267438    -0.01700
C762        C  0.30538190  0.60525158  0.76795375     0.08000
C763        C  0.30774665  0.55966506  0.76431600    -0.01800
C764        C  0.34859477  0.53826334  0.76316049    -0.01800
C765        C  0.38724807  0.56214297  0.76727934     0.08200
C766        C  0.38466736  0.60727970  0.77423332    -0.02000
Br767      Br  0.43641715  0.63887998  0.78767612    -0.00500
Br768      Br  0.34012528  0.69155628  0.77485674    -0.00600
Br769      Br  0.35166709  0.47598256  0.75745568    -0.00500
Br770      Br  0.25485455  0.52679312  0.76094560    -0.00500
C771        C  0.06250028  0.82328573  0.74618076    -0.01700
C772        C  0.10551287  0.81914413  0.76091164     0.08000
C773        C  0.12563450  0.85566208  0.77755811    -0.01800
C774        C  0.10369464  0.89652450  0.77756094    -0.01800
C775        C  0.06163209  0.90110159  0.76045921     0.08200
C776        C  0.04098349  0.86409452  0.74534371    -0.02000
Br777      Br  0.98218012  0.86872484  0.72480196    -0.00500
Br778      Br  0.03175755  0.77215318  0.72979202    -0.00600
Br779      Br  0.13187582  0.94631371  0.79990824    -0.00500
Br780      Br  0.18348191  0.84958909  0.79978006    -0.00500
C781        C  0.11070144  0.68091449  0.90356118    -0.01700
C782        C  0.14386143  0.65824007  0.92508366     0.08000
C783        C  0.16405242  0.62331287  0.90509237    -0.01800
C784        C  0.16471212  0.62395910  0.86428883    -0.01800
C785        C  0.14656163  0.66012771  0.84339018     0.08200
C786        C  0.11246155  0.68258155  0.86266976    -0.02000
Br787      Br  0.06158791  0.70474053  0.83429337    -0.00500
Br788      Br  0.05598047  0.69589018  0.92771778    -0.00600
Br789      Br  0.17825465  0.56999667  0.83821837    -0.00500
Br790      Br  0.18064615  0.56938855  0.93162267    -0.00500
C791        C  0.15976209  0.62110387  0.61620735    -0.01700
C792        C  0.15933163  0.65997054  0.59367455     0.08000
C793        C  0.17856339  0.69668394  0.61192571    -0.01800
C794        C  0.18076477  0.69900358  0.65275350    -0.01800
C795        C  0.16472869  0.66434737  0.67552630     0.08200
C796        C  0.16293801  0.62322602  0.65692815    -0.02000
Br797      Br  0.17368310  0.56930910  0.68560771    -0.00500
Br798      Br  0.16723250  0.56485418  0.59227324    -0.00600
Br799      Br  0.21709185  0.74286728  0.67612110    -0.00500
Br800      Br  0.21147128  0.73887786  0.58246410    -0.00500
C801        C  0.33936504  0.63230993  0.00647099    -0.01700
C802        C  0.30139024  0.60731381  0.00708243     0.08000
C803        C  0.30446849  0.56147642  0.50944921    -0.01800
C804        C  0.34569571  0.54069113  0.50936190    -0.01800
C805        C  0.38410008  0.56583519  0.00855095     0.08200
C806        C  0.38072107  0.61171365  0.00862284    -0.02000
Br807      Br  0.43234904  0.64623510  0.01382333    -0.00500
Br808      Br  0.33384185  0.69473608  0.00251589    -0.00600
Br809      Br  0.35014315  0.47801572  0.51157521    -0.00500
Br810      Br  0.25237091  0.52751835  0.51338444    -0.00500
C811        C  0.10292901  0.88996560  0.01208200    -0.01700
C812        C  0.05810296  0.89728085  0.01836524     0.08000
C813        C  0.03141757  0.86137294  0.52750180    -0.01800
C814        C  0.04838527  0.81845585  0.52581947    -0.01800
C815        C  0.09237109  0.81138650  0.01517058     0.08200
C816        C  0.11980516  0.84715778  0.00975147    -0.02000
Br817      Br  0.18098418  0.83685793  0.00114588    -0.00500
Br818      Br  0.14196544  0.93832580  0.01103291    -0.00600
Br819      Br  0.01202113  0.76955043  0.53770368    -0.00500
Br820      Br  0.97230050  0.87129438  0.54363914    -0.00500
C821        C  0.60162940  0.62392464  0.77388361    -0.01700
C822        C  0.56285373  0.61654933  0.75227191     0.08000
C823        C  0.54393324  0.65116468  0.73010113    -0.01800
C824        C  0.56206642  0.69295432  0.73135428    -0.01800
C825        C  0.60114960  0.70017200  0.75218729     0.08200
C826        C  0.62098883  0.66539420  0.77331098    -0.02000
Br827      Br  0.67561990  0.67417615  0.80039688    -0.00500
Br828      Br  0.63015187  0.57684009  0.80251270    -0.00600
Br829      Br  0.53072163  0.74118019  0.70732924    -0.00500
Br830      Br  0.49227372  0.64263204  0.69832552    -0.00500
C831        C  0.83777582  0.89962745  0.77561432    -0.01700
C832        C  0.80237653  0.91651276  0.75313465     0.08000
C833        C  0.80786928  0.95498094  0.73114421    -0.01800
C834        C  0.84887862  0.97497300  0.73005288    -0.01800
C835        C  0.88358071  0.95920188  0.75395682     0.08200
C836        C  0.87751263  0.92198653  0.77748282    -0.02000
Br837      Br  0.92418662  0.89987505  0.81083351    -0.00500
Br838      Br  0.83357568  0.84370528  0.80108806    -0.00600
Br839      Br  0.85699633  0.02422933  0.69570745    -0.00500
Br840      Br  0.75872249  0.98195912  0.70424489    -0.00500
C841        C  0.61853245  0.85333002  0.89556074    -0.01700
C842        C  0.65880932  0.84992684  0.91654840     0.08000
C843        C  0.69375205  0.82934523  0.89690505    -0.01800
C844        C  0.69312517  0.82759770  0.85618133    -0.01800
C845        C  0.65743492  0.84603069  0.83477753     0.08200
C846        C  0.61786415  0.85062640  0.85493495    -0.02000
Br847      Br  0.56221800  0.84217140  0.82874971    -0.00500
Br848      Br  0.56290370  0.85157650  0.92122502    -0.00600
Br849      Br  0.73549083  0.79023937  0.83139466    -0.00500
Br850      Br  0.73689688  0.79367198  0.92464703    -0.00500
C851        C  0.69395587  0.82629424  0.60603797    -0.01700
C852        C  0.65827208  0.84487447  0.58451966     0.08000
C853        C  0.61820288  0.84776068  0.60427414    -0.01800
C854        C  0.61789783  0.84838243  0.64503765    -0.01800
C855        C  0.65763475  0.84488130  0.66662897     0.08200
C856        C  0.69342395  0.82588749  0.64692096    -0.02000
Br857      Br  0.73652979  0.78984499  0.67441798    -0.00500
Br858      Br  0.73863996  0.79202487  0.58085260    -0.00600
Br859      Br  0.56205737  0.84430380  0.66992878    -0.00500
Br860      Br  0.56320163  0.84038113  0.57692891    -0.00500
C861        C  0.56509979  0.69579891  0.97017037    -0.01700
C862        C  0.60029447  0.70386470  0.49535567     0.08000
C863        C  0.61649637  0.66987226  0.51950115    -0.01800
C864        C  0.59490863  0.62975128  0.52116668    -0.01800
C865        C  0.56037252  0.62095460  0.49460171     0.08200
C866        C  0.54707617  0.65396647  0.96810051    -0.02000
Br867      Br  0.50234976  0.64363108  0.92918223    -0.00500
Br868      Br  0.53741306  0.74250115  0.94077206    -0.00600
Br869      Br  0.61421478  0.58764304  0.56018482    -0.00500
Br870      Br  0.67039697  0.67701547  0.54834011    -0.00500
C871        C  0.80906947  0.95859428  0.02464956    -0.01700
C872        C  0.80341420  0.91966096  0.50348730     0.08000
C873        C  0.83903423  0.90164994  0.48364335    -0.01800
C874        C  0.87913895  0.92321197  0.48278541    -0.01800
C875        C  0.88546747  0.96108448  0.50499281     0.08200
C876        C  0.85042118  0.97812908  0.02683822    -0.02000
Br877      Br  0.85795537  0.02826077  0.05935935    -0.00500
Br878      Br  0.75951675  0.98628836  0.04827110    -0.00600
Br879      Br  0.92540220  0.89898589  0.45179294    -0.00500
Br880      Br  0.83418105  0.84542086  0.45991522    -0.00500
C881        C  0.50712972  0.95483545  0.75179408    -0.01700
C882        C  0.55035020  0.96999277  0.75070968     0.08000
C883        C  0.55806255  0.01492353  0.75297304    -0.01800
C884        C  0.52277074  0.04458366  0.75602518    -0.01800
C885        C  0.47968687  0.02932752  0.75787116     0.08200
C886        C  0.47192490  0.98446649  0.75528174    -0.02000
Br887      Br  0.41270929  0.96440224  0.75519532    -0.00500
Br888      Br  0.49635207  0.89342577  0.74848175    -0.00600
Br889      Br  0.53281953  0.10629709  0.75637000    -0.00500
Br890      Br  0.61710202  0.03522482  0.75183080    -0.00500
C891        C  0.39386874  0.32868919  0.72604645    -0.01700
C892        C  0.40749614  0.29681913  0.75373426     0.08000
C893        C  0.43831158  0.30892755  0.78253323    -0.01800
C894        C  0.45252111  0.35223066  0.78534078    -0.01800
C895        C  0.44259340  0.38292021  0.75533674     0.08200
C896        C  0.41341604  0.37021919  0.72516459    -0.02000
Br897      Br  0.39836886  0.40891571  0.68220447    -0.00500
Br898      Br  0.34607383  0.31717038  0.69070394    -0.00600
Br899      Br  0.48602594  0.36739712  0.83120399    -0.00500
Br900      Br  0.46640590  0.26608320  0.81610286    -0.00500
C901        C  0.19630733  0.05743028  0.72981677    -0.01700
C902        C  0.20817321  0.09625402  0.74852939     0.08000
C903        C  0.17497349  0.12220624  0.76485727    -0.01800
C904        C  0.13116935  0.10864225  0.76409443    -0.01800
C905        C  0.11956340  0.07015842  0.74495104     0.08200
C906        C  0.15217555  0.04548845  0.72646753    -0.02000
Br907      Br  0.13710112  0.99408641  0.69759087    -0.00500
Br908      Br  0.24038637  0.01778938  0.71220806    -0.00600
Br909      Br  0.08666380  0.14404668  0.78778378    -0.00500
Br910      Br  0.18864530  0.17757939  0.78662175    -0.00500
C911        C  0.51051537  0.95894033  0.00272077    -0.01700
C912        C  0.55369815  0.97373435  0.99986886     0.08000
C913        C  0.56151045  0.01847108  0.49621464    -0.01800
C914        C  0.52630627  0.04847672  0.49669700    -0.01800
C915        C  0.48328034  0.03373437  0.00008439     0.08200
C916        C  0.47546164  0.98893409  0.00321576    -0.02000
Br917      Br  0.41641284  0.96931234  0.00813343    -0.00500
Br918      Br  0.49933289  0.89750256  0.00413473    -0.00600
Br919      Br  0.53671639  0.11004911  0.49385186    -0.00500
Br920      Br  0.62038030  0.03814979  0.49033588    -0.00500
C921        C  0.33022161  0.17218407  0.89928984    -0.01700
C922        C  0.36656386  0.15479881  0.92040284     0.08000
C923        C  0.40585905  0.15231898  0.89963169    -0.01800
C924        C  0.40458400  0.14902593  0.85891801    -0.01800
C925        C  0.36375374  0.14910317  0.83844040     0.08200
C926        C  0.32872860  0.16917415  0.85844691    -0.02000
Br927      Br  0.28533238  0.20396820  0.83084776    -0.00500
Br928      Br  0.28928308  0.21097625  0.92429691    -0.00600
Br929      Br  0.45931676  0.15555139  0.83242524    -0.00500
Br930      Br  0.46085895  0.16552367  0.92501256    -0.00500
C931        C  0.35022189  0.10178182  0.64959387    -0.01700
C932        C  0.36995455  0.13638062  0.67008473     0.08000
C933        C  0.40478262  0.15649845  0.65030965    -0.01800
C934        C  0.40556959  0.15565478  0.60949643    -0.01800
C935        C  0.37107782  0.13599839  0.58857453     0.08200
C936        C  0.35018303  0.10187168  0.60871432    -0.02000
Br937      Br  0.33414531  0.04902371  0.58219854    -0.00500
Br938      Br  0.33782060  0.04773066  0.67599255    -0.00600
Br939      Br  0.45982074  0.16777653  0.58400408    -0.00500
Br940      Br  0.45745905  0.17335330  0.67775700    -0.00500
C941        C  0.43972424  0.31496120  0.53823283    -0.01700
C942        C  0.40751819  0.30092209  0.51144139     0.08000
C943        C  0.39221594  0.33123238  0.98307625    -0.01800
C944        C  0.41204561  0.37213949  0.97820193    -0.01800
C945        C  0.44398397  0.38603904  0.50486552     0.08200
C946        C  0.45694577  0.35729498  0.53561573    -0.02000
Br947      Br  0.50121165  0.37335487  0.57353994    -0.00500
Br948      Br  0.46312260  0.27685937  0.57823660    -0.00600
Br949      Br  0.39434952  0.40766085  0.93393843    -0.00500
Br950      Br  0.34043353  0.31855714  0.95293210    -0.00500
C951        C  0.15513662  0.05302427  0.47430465    -0.01700
C952        C  0.12477419  0.06850551  0.50173223     0.08000
C953        C  0.13841129  0.10085707  0.02830358    -0.01800
C954        C  0.18071559  0.11820316  0.02628025    -0.01800
C955        C  0.21201580  0.09961273  0.50136830     0.08200
C956        C  0.19897652  0.06626972  0.47601055    -0.02000
Br957      Br  0.24141838  0.03540438  0.44549297    -0.00500
Br958      Br  0.13847602  0.01286275  0.43401948    -0.00600
Br959      Br  0.19424752  0.16974728  0.05535798    -0.00500
Br960      Br  0.09974086  0.12296263  0.06736751    -0.00500
C961        C  0.02004683  0.48335611  0.74889545    -0.01700
C962        C  0.97674663  0.49435203  0.73814186     0.08000
C963        C  0.96446010  0.53830146  0.73244710    -0.01800
C964        C  0.99532282  0.57126320  0.73772819    -0.01800
C965        C  0.03860467  0.56028833  0.74815567     0.08200
C966        C  0.05111073  0.51628741  0.75344845    -0.02000
Br967      Br  0.11102169  0.50148524  0.76585259    -0.00500
Br968      Br  0.03640019  0.42310279  0.75700149    -0.00600
Br969      Br  0.97870898  0.63169844  0.73195112    -0.00500
Br970      Br  0.90494313  0.55289427  0.71866276    -0.00500
C971        C  0.96543961  0.16920004  0.71938469    -0.01700
C972        C  0.94145115  0.13649423  0.73806979     0.08000
C973        C  0.90060712  0.14738905  0.75402192    -0.01800
C974        C  0.88441035  0.19075630  0.75166079    -0.01800
C975        C  0.90958931  0.22379460  0.73469521     0.08200
C976        C  0.95066036  0.21280294  0.71951025    -0.02000
Br977      Br  0.98949608  0.25787699  0.70343982    -0.00500
Br978      Br  0.01943940  0.15468937  0.69422001    -0.00600
Br979      Br  0.82762197  0.20519680  0.77133556    -0.00500
Br980      Br  0.86594131  0.10271524  0.77753714    -0.00500
C981        C  0.65215611  0.47031955  0.72236180    -0.01700
C982        C  0.62106928  0.44429754  0.74092956     0.08000
C983        C  0.63362203  0.40283648  0.75566273    -0.01800
C984        C  0.67695976  0.38753867  0.75165834    -0.01800
C985        C  0.70831262  0.41409344  0.73401182     0.08200
C986        C  0.69575468  0.45589537  0.72015007    -0.02000
Br987      Br  0.73887179  0.49588170  0.70234008    -0.00500
Br988      Br  0.63578172  0.52707459  0.70149476    -0.00600
Br989      Br  0.69364215  0.33009472  0.77006260    -0.00500
Br990      Br  0.59125343  0.36643874  0.78017451    -0.00500
C991        C  0.01498591  0.47505983  0.99262020    -0.01700
C992        C  0.97067260  0.48758193  0.49147919     0.08000
C993        C  0.95886970  0.53135763  0.49735987    -0.01800
C994        C  0.99133334  0.56238874  0.50424540    -0.01800
C995        C  0.03547539  0.54934490  0.50654725     0.08200
C996        C  0.04735091  0.50579561  0.00078523    -0.02000
Br997      Br  0.10782584  0.48827378  0.00407773    -0.00500
Br998      Br  0.03038772  0.41526155  0.98267423    -0.00600
Br999      Br  0.97610235  0.62302564  0.50921258    -0.00500
Br1000     Br  0.89814627  0.54817916  0.49517159    -0.00500
C1001       C  0.84623755  0.41530476  0.83749085    -0.01700
C1002       C  0.86898431  0.38196697  0.81759552     0.08000
C1003       C  0.90320582  0.36086789  0.83906481    -0.01800
C1004       C  0.90201977  0.35980851  0.87985485    -0.01800
C1005       C  0.86671672  0.38003394  0.89922091     0.08200
C1006       C  0.84546272  0.41445264  0.87826129    -0.02000
Br1007     Br  0.82669756  0.46670483  0.90428727    -0.00500
Br1008     Br  0.82572876  0.46794593  0.81078632    -0.00600
Br1009     Br  0.95458955  0.34170640  0.90784384    -0.00500
Br1010     Br  0.95725667  0.34426530  0.81438115    -0.00500
C1011       C  0.90184835  0.36224548  0.62884804    -0.01700
C1012       C  0.86803421  0.38296177  0.64919969     0.08000
C1013       C  0.84366069  0.41438324  0.62759173    -0.01800
C1014       C  0.83984238  0.41099285  0.58695764    -0.01800
C1015       C  0.86201562  0.37660838  0.56747041     0.08200
C1016       C  0.89871671  0.35840364  0.58824061    -0.02000
Br1017     Br  0.95074691  0.33921265  0.56196097    -0.00500
Br1018     Br  0.95780525  0.35219115  0.65423400    -0.00600
Br1019     Br  0.81471641  0.46084587  0.55917138    -0.00500
Br1020     Br  0.82939152  0.46930736  0.65117479    -0.00500
C1021       C  0.88203095  0.18249457  0.47820676    -0.01700
C1022       C  0.90792914  0.22019171  0.98287944     0.08000
C1023       C  0.95351508  0.21551131  0.98711504    -0.01800
C1024       C  0.97306903  0.17379453  0.98963590    -0.01800
C1025       C  0.94720012  0.13630230  0.98823771     0.08200
C1026       C  0.90174236  0.14060441  0.48052693    -0.02000
Br1027     Br  0.86720261  0.08972829  0.47158796    -0.00500
Br1028     Br  0.82035784  0.18932291  0.46836667    -0.00600
Br1029     Br  0.03558950  0.16802539  0.99211261    -0.00500
Br1030     Br  0.98923945  0.26652348  0.98804054    -0.00500
C1031       C  0.69638719  0.45790489  0.47635581    -0.01700
C1032       C  0.70373249  0.41260356  0.97898810     0.08000
C1033       C  0.66786546  0.38493572  0.98337622    -0.01800
C1034       C  0.62525701  0.40262881  0.98606479    -0.01800
C1035       C  0.61860156  0.44814457  0.98534272     0.08200
C1036       C  0.65391857  0.47552203  0.47862796    -0.02000
Br1037     Br  0.64442632  0.53723036  0.47108713    -0.00500
Br1038     Br  0.74517873  0.49622711  0.47163419    -0.00600
Br1039     Br  0.57575565  0.36480671  0.98851936    -0.00500
Br1040     Br  0.67771111  0.32299168  0.98603587    -0.00500
loop_ 
_geom_bond_atom_site_label_1 
_geom_bond_atom_site_label_2 
_geom_bond_distance 
_geom_bond_site_symmetry_2 
_ccdc_geom_bond_type 
C1            C3   1.549       .  S
C1            C5   1.552       .  S
C1            C4   1.526       .  S
C1          C495   1.548       .  S
C2            C6   1.555       .  S
C2            C8   1.552       .  S
C2            C7   1.530       .  S
C2          C485   1.541       .  S
C3           C11   1.381       .  A
C3          C526   1.403   1_554  A
C4           C15   1.375       .  A
C4          C527   1.378   1_554  A
C5           C19   1.384       .  A
C5          C528   1.402   1_554  A
C6            C9   1.387       .  A
C6          C523   1.403       .  A
C7           C13   1.383       .  A
C7          C524   1.378       .  A
C8           C16   1.385       .  A
C8          C525   1.402       .  A
C9           N10   1.361       .  A
C9           H22   1.080       .  S
N10         C531   1.355       .  A
N10         C512   1.441       .  S
C11         N530   1.355   1_554  A
C11          H12   1.084       .  S
C13         N534   1.357       .  A
C13          H23   1.082       .  S
N14          C15   1.351   1_556  A
N14         C533   1.357       .  A
N14         C472   1.431       .  S
C15          H21   1.083       .  S
C16          N17   1.357       .  A
C16          H18   1.082       .  S
N17         C539   1.359       .  A
N17         C502   1.442       .  S
C19         N537   1.359   1_554  A
C19          H20   1.082       .  S
C24          C26   1.554       .  S
C24          C28   1.554       .  S
C24          C27   1.538       .  S
C24         C492   1.542       .  S
C25          C29   1.547       .  S
C25          C31   1.543       .  S
C25          C30   1.526       .  S
C25         C482   1.538       .  S
C26          C34   1.386       .  A
C26          C29   1.399       .  A
C27          C38   1.384       .  A
C27          C30   1.384       .  A
C28          C42   1.387       .  A
C28          C31   1.398       .  A
C29          C32   1.382       .  A
C30          C36   1.374       .  A
C31          C39   1.379       .  A
C32          N33   1.358       .  A
C32          H45   1.082       .  S
N33          C34   1.361       .  A
N33         C455   1.447       .  S
C34          H35   1.082       .  S
C36          N37   1.353       .  A
C36          H46   1.082       .  S
N37          C38   1.359       .  A
N37         C442   1.434       .  S
C38          H44   1.083       .  S
C39          N40   1.354       .  A
C39          H41   1.084       .  S
N40          C42   1.362       .  A
N40         C465   1.444       .  S
C42          H43   1.080       .  S
C47          C49   1.550       .  S
C47          C51   1.546       .  S
C47          C50   1.535       .  S
C47         C415   1.541       .  S
C48          C52   1.537       .  S
C48          C54   1.551       .  S
C48          C53   1.545       .  S
C48         C402   1.546       .  S
C49          C57   1.387       .  A
C49         C572   1.389   1_554  A
C50          C61   1.378       .  A
C50         C573   1.391   1_554  A
C51          C65   1.381       .  A
C51         C574   1.398   1_554  A
C52          C55   1.376       .  A
C52         C569   1.389       .  A
C53          C59   1.384       .  A
C53         C570   1.391       .  A
C54          C62   1.381       .  A
C54         C571   1.398       .  A
C55         N576   1.362       .  A
C55          H68   1.082       .  S
N56          C57   1.366       .  A
N56         C575   1.362   1_554  A
N56         C422   1.458       .  S
C57          H58   1.081       .  S
C59         N580   1.357       .  A
C59          H69   1.082       .  S
N60          C61   1.353       .  A
N60         C579   1.357   1_554  A
N60         C915   1.435       .  S
C61          H67   1.083       .  S
C62         N583   1.360       .  A
C62          H64   1.080       .  S
N63          C65   1.359       .  A
N63         C582   1.360   1_554  A
N63         C435   1.450       .  S
C65          H66   1.082       .  S
C70          C72   1.538       .  S
C70          C74   1.556       .  S
C70          C73   1.557       .  S
C70         C405   1.554       .  S
C71          C75   1.549       .  S
C71          C77   1.560       .  S
C71          C76   1.526       .  S
C71         C412   1.546       .  S
C72          C80   1.377       .  A
C72          C75   1.386       .  A
C73          C84   1.393       .  A
C73          C76   1.389       .  A
C74          C88   1.388       .  A
C74          C77   1.405       .  A
C75          C78   1.389       .  A
C76          C82   1.374       .  A
C77          C85   1.387       .  A
C78          N79   1.365       .  A
C78          H91   1.081       .  S
N79          C80   1.359       .  A
N79         C372   1.458       .  S
C80          H81   1.081       .  S
C82          N83   1.350       .  A
C82          H92   1.081       .  S
N83          C84   1.361       .  A
N83         C365   1.438       .  S
C84          H90   1.082       .  S
C85          N86   1.362       .  A
C85          H87   1.081       .  S
N86          C88   1.362       .  A
N86         C382   1.452       .  S
C88          H89   1.083       .  S
C93          C95   1.540       .  S
C93          C97   1.526       .  S
C93          C96   1.546       .  S
C93         C322   1.538       .  S
C94          C98   1.550       .  S
C94         C100   1.530       .  S
C94          C99   1.550       .  S
C94         C332   1.542       .  S
C95         C103   1.380       .  A
C95         C618   1.405       .  A
C96         C107   1.381       .  A
C96         C619   1.400       .  A
C97         C111   1.376       .  A
C97         C620   1.376       .  A
C98         C101   1.384       .  A
C98         C615   1.405   1_554  A
C99         C105   1.382       .  A
C99         C616   1.400   1_554  A
C100        C108   1.379       .  A
C100        C617   1.376   1_554  A
C101        N622   1.357       .  A
C101        H114   1.081       .  S
N102        C103   1.355       .  A
N102        C621   1.357       .  A
N102        C872   1.442       .  S
C103        H104   1.084       .  S
C105        N626   1.358       .  A
C105        H115   1.083       .  S
N106        C107   1.355       .  A
N106        C625   1.358       .  A
N106        C392   1.437       .  S
C107        H113   1.081       .  S
C108        N629   1.361   1_554  A
C108        H110   1.082       .  S
N109        C111   1.356       .  A
N109        C628   1.361       .  A
N109        C862   1.445       .  S
C111        H112   1.083       .  S
C116        C118   1.529       .  S
C116        C120   1.541       .  S
C116        C119   1.541       .  S
C116        C325   1.535       .  S
C117        C121   1.533       .  S
C117        C123   1.548       .  S
C117        C122   1.559       .  S
C117        C335   1.544       .  S
C118        C126   1.379       .  A
C118        C121   1.380       .  A
C119        C130   1.378       .  A
C119        C122   1.399       .  A
C120        C134   1.380       .  A
C120        C123   1.401       .  A
C121        C124   1.379       .  A
C122        C128   1.390       .  A
C123        C131   1.382       .  A
C124        N125   1.360       .  A
C124        H137   1.083       .  S
N125        C126   1.358       .  A
N125        C305   1.444       .  S
C126        H127   1.082       .  S
C128        N129   1.361       .  A
C128        H138   1.080       .  S
N129        C130   1.353       .  A
N129        C362   1.441       .  S
C130        H136   1.084       .  S
C131        N132   1.358       .  A
C131        H133   1.083       .  S
N132        C134   1.355       .  A
N132        C312   1.443       .  S
C134        H135   1.082       .  S
C139        C141   1.557       .  S
C139        C143   1.546       .  S
C139        C142   1.532       .  S
C139        C262   1.548       .  S
C140        C144   1.540       .  S
C140        C146   1.533       .  S
C140        C145   1.552       .  S
C140        C272   1.547       .  S
C141        C149   1.388       .  A
C141        C664   1.400       .  A
C142        C153   1.370       .  A
C142        C665   1.397       .  A
C143        C157   1.386       .  A
C143        C666   1.391       .  A
C144        C147   1.377       .  A
C144        C661   1.400   1_554  A
C145        C151   1.390       .  A
C145        C662   1.396   1_554  A
C146        C154   1.376       .  A
C146        C663   1.391   1_554  A
C147        N148   1.352       .  A
C147        H160   1.082       .  S
N148        C669   1.361   1_554  A
N148        C815   1.440       .  S
C149        N668   1.361       .  A
C149        H150   1.082       .  S
C151        N152   1.361       .  A
C151        H161   1.082       .  S
N152        C673   1.349   1_554  A
N152        C475   1.434       .  S
C153        N672   1.349       .  A
C153        H159   1.083       .  S
C154        N155   1.353       .  A
C154        H156   1.084       .  S
N155        C677   1.358   1_554  A
N155        C802   1.436       .  S
C157        N675   1.358       .  A
C157        H158   1.082       .  S
C162        C164   1.549       .  S
C162        C166   1.551       .  S
C162        C165   1.534       .  S
C162        C265   1.546       .  S
C163        C167   1.535       .  S
C163        C169   1.557       .  S
C163        C168   1.537       .  S
C163        C275   1.548       .  S
C164        C172   1.386       .  A
C164        C167   1.394       .  A
C165        C176   1.379       .  A
C165        C168   1.387       .  A
C166        C180   1.382       .  A
C166        C169   1.405       .  A
C167        C170   1.377       .  A
C168        C174   1.380       .  A
C169        C177   1.384       .  A
C170        N171   1.354       .  A
C170        H183   1.082       .  S
N171        C172   1.358       .  A
N171        C242   1.437       .  S
C172        H173   1.082       .  S
C174        N175   1.354       .  A
C174        H184   1.083       .  S
N175        C176   1.355       .  A
N175        C445   1.433       .  S
C176        H182   1.082       .  S
C177        N178   1.361       .  A
C177        H179   1.084       .  S
N178        C180   1.357       .  A
N178        C252   1.445       .  S
C180        H181   1.080       .  S
O185       Ni193   1.936   1_655  S
O185        C715   1.285   1_554  A
O186       Ni193   1.930   1_565  S
O186        C716   1.282       .  A
O187       Ni193   1.926       .  S
O187        C197   1.283       .  A
O188       Ni193   1.922   1_665  S
O188        C198   1.282       .  A
O189       Ni194   1.911   1_665  S
O189        C718   1.280       .  A
O190       Ni194   1.914       .  S
O190        C717   1.280       .  A
O191       Ni194   1.931   1_565  S
O191        C196   1.283       .  A
O192       Ni194   1.921   1_655  S
O192        C195   1.280       .  A
Ni193      Ni714   2.384   1_554  S
Ni194      Ni713   2.384       .  S
C195        O705   1.285       .  A
C195        C505   1.485       .  S
C196        O706   1.282       .  A
C196        C292   1.487       .  S
C197        O710   1.280   1_554  A
C197        C432   1.498       .  S
C198        O709   1.280   1_554  A
C198        C355   1.486       .  S
O199       Ni207   1.930   1_565  S
O199        C209   1.283       .  A
O200       Ni207   1.931   1_655  S
O200        C210   1.283       .  A
O201       Ni207   1.923   1_665  S
O201        C211   1.282       .  A
O202       Ni207   1.923       .  S
O202        C212   1.283       .  A
O203       Ni208   1.916   1_455  S
O203        C212   1.280       .  A
O204       Ni208   1.911   1_565  S
O204        C211   1.279       .  A
O205       Ni208   1.925       .  S
O205        C210   1.282       .  A
O206       Ni208   1.922   1_465  S
O206        C209   1.282       .  A
Ni207      Ni208   2.388   1_455  S
C209        C255   1.486       .  S
C210        C452   1.488       .  S
C211        C315   1.479       .  S
C212        C385   1.484       .  S
O213       Ni221   1.925       .  S
O213        C743   1.281       .  A
O214       Ni221   1.937       .  S
O214        C744   1.285   1_554  A
O215       Ni221   1.905       .  S
O215        C225   1.277   1_554  A
O216       Ni221   1.908       .  S
O216        C226   1.278       .  A
O217       Ni222   1.931       .  S
O217        C746   1.284       .  A
O218       Ni222   1.925       .  S
O218        C745   1.284       .  A
O219       Ni222   1.911       .  S
O219        C224   1.277       .  A
O220       Ni222   1.922       .  S
O220        C223   1.281       .  A
Ni221      Ni742   2.383   1_554  S
Ni222      Ni741   2.383       .  S
C223        O733   1.281       .  A
C223        C285   1.477       .  S
C224        O734   1.285       .  A
C224        C515   1.479       .  S
C225        O738   1.283       .  A
C225        C345   1.490       .  S
C226        O737   1.284   1_554  A
C226        C425   1.501       .  S
O227       Ni235   1.928       .  S
O227        C237   1.282       .  A
O228       Ni235   1.921       .  S
O228        C238   1.280       .  A
O229       Ni235   1.923       .  S
O229        C239   1.282       .  A
O230       Ni235   1.923       .  S
O230        C240   1.282       .  A
O231       Ni236   1.916       .  S
O231        C240   1.281       .  A
O232       Ni236   1.919       .  S
O232        C239   1.280       .  A
O233       Ni236   1.926       .  S
O233        C238   1.283       .  A
O234       Ni236   1.916       .  S
O234        C237   1.280       .  A
Ni235      Ni236   2.383       .  S
C237        C462   1.481       .  S
C238        C245   1.479       .  S
C239        C375   1.506       .  S
C240        C302   1.488       .  S
C241        C242   1.405       .  A
C241        C246   1.410       .  A
C241       Br248   1.924       .  S
C242        C243   1.408       .  A
C243        C244   1.408       .  A
C243       Br250   1.925       .  S
C244        C245   1.408       .  A
C244       Br249   1.926       .  S
C245        C246   1.411       .  A
C246       Br247   1.925       .  S
C251        C252   1.409       .  A
C251        C256   1.408       .  A
C251       Br258   1.929       .  S
C252        C253   1.412       .  A
C253        C254   1.415       .  A
C253       Br260   1.927       .  S
C254        C255   1.414       .  A
C254       Br259   1.930       .  S
C255        C256   1.411       .  A
C256       Br257   1.930   1_455  S
C261        C262   1.419       .  A
C261        C266   1.417       .  A
C261       Br268   1.939       .  S
C262        C263   1.423       .  A
C263        C264   1.412       .  A
C263       Br270   1.940       .  S
C264        C265   1.420       .  A
C264       Br269   1.940       .  S
C265        C266   1.424       .  A
C266       Br267   1.940       .  S
C271        C272   1.417       .  A
C271        C276   1.413       .  A
C271       Br278   1.937       .  S
C272        C273   1.429       .  A
C273        C274   1.416       .  A
C273       Br280   1.942       .  S
C274        C275   1.414       .  A
C274       Br279   1.936       .  S
C275        C276   1.426       .  A
C276       Br277   1.941       .  S
C281        C282   1.404       .  A
C281        C286   1.409       .  A
C281       Br288   1.925       .  S
C282        C803   1.409       .  A
C282        N675   1.436       .  S
C283        C284   1.408       .  A
C283        C802   1.409       .  A
C283       Br290   1.925       .  S
C284        C805   1.408       .  A
C284       Br289   1.928       .  S
C285        C286   1.411       .  A
C285        C804   1.408       .  A
C286       Br287   1.925       .  S
C291        C292   1.410       .  A
C291        C296   1.410       .  A
C291       Br298   1.920       .  S
C292        C813   1.411       .  A
C293        C294   1.412       .  A
C293        C812   1.411       .  A
C293       Br300   1.926   1_455  S
C294        C815   1.410       .  A
C294       Br299   1.927       .  S
C295        C296   1.405       .  A
C295        C814   1.410       .  A
C295        N668   1.440       .  S
C296       Br297   1.926       .  S
C301        C302   1.416       .  A
C301        C306   1.412       .  A
C301       Br308   1.933       .  S
C302        C303   1.415       .  A
C303        C304   1.406       .  A
C303       Br310   1.936       .  S
C304        C305   1.410       .  A
C304       Br309   1.926       .  S
C305        C306   1.411       .  A
C306       Br307   1.930       .  S
C311        C312   1.414       .  A
C311        C316   1.408       .  A
C311       Br318   1.927       .  S
C312        C313   1.410       .  A
C313        C314   1.408       .  A
C313       Br320   1.929       .  S
C314        C315   1.413       .  A
C314       Br319   1.933   1_565  S
C315        C316   1.411       .  A
C316       Br317   1.934       .  S
C321        C322   1.424       .  A
C321        C326   1.409       .  A
C321       Br328   1.936       .  S
C322        C323   1.423       .  A
C323        C324   1.411       .  A
C323       Br330   1.940       .  S
C324        C325   1.418       .  A
C324       Br329   1.939       .  S
C325        C326   1.415       .  A
C326       Br327   1.941       .  S
C331        C332   1.422       .  A
C331        C336   1.415       .  A
C331       Br338   1.941       .  S
C332        C333   1.418       .  A
C333        C334   1.411       .  A
C333       Br340   1.937       .  S
C334        C335   1.421       .  A
C334       Br339   1.934       .  S
C335        C336   1.423       .  A
C336       Br337   1.941       .  S
C341        C346   1.408       .  A
C341        C862   1.414       .  A
C341       Br348   1.927       .  S
C342        C343   1.409   1_556  A
C342        C861   1.414       .  A
C342        N629   1.444       .  S
C343        C344   1.407       .  A
C343       Br350   1.933       .  S
C344        C345   1.422   1_554  A
C344       Br349   1.937       .  S
C345        C866   1.416       .  A
C346        C865   1.416       .  A
C346       Br347   1.938       .  S
C351        C356   1.411       .  A
C351        C872   1.410       .  A
C351       Br358   1.929       .  S
C352        C353   1.409   1_554  A
C352        C871   1.410       .  A
C352        N622   1.442       .  S
C353        C354   1.405       .  A
C353       Br360   1.928       .  S
C354        C355   1.416   1_556  A
C354       Br359   1.938       .  S
C355        C876   1.418       .  A
C356        C875   1.417       .  A
C356       Br357   1.933   1_565  S
C361        C362   1.411       .  A
C361        C366   1.410       .  A
C361       Br368   1.923       .  S
C362        C363   1.406   1_565  A
C363        C364   1.411       .  A
C363       Br370   1.923       .  S
C364        C365   1.410       .  A
C364       Br369   1.924       .  S
C365        C366   1.405   1_545  A
C366       Br367   1.925       .  S
C371        C372   1.415       .  A
C371        C376   1.416       .  A
C371       Br378   1.932       .  S
C372        C373   1.418       .  A
C373        C374   1.409       .  A
C373       Br380   1.928       .  S
C374        C375   1.419       .  A
C374       Br379   1.941       .  S
C375        C376   1.425       .  A
C376       Br377   1.937       .  S
C381        C382   1.413       .  A
C381        C386   1.410       .  A
C381       Br388   1.918       .  S
C382        C383   1.413       .  A
C383        C384   1.411       .  A
C383       Br390   1.917       .  S
C384        C385   1.409       .  A
C384       Br389   1.932       .  S
C385        C386   1.412       .  A
C386       Br387   1.936   1_545  S
C391        C392   1.410       .  A
C391        C396   1.406       .  A
C391       Br398   1.922       .  S
C392        C913   1.406   1_565  A
C393        C394   1.410       .  A
C393        C912   1.406   1_545  A
C393       Br400   1.924       .  S
C394        C915   1.410   1_556  A
C394       Br399   1.923       .  S
C395        C396   1.403   1_545  A
C395        C914   1.410       .  A
C395        N580   1.435       .  S
C396       Br397   1.925       .  S
C401        C402   1.417       .  A
C401        C406   1.417       .  A
C401       Br408   1.940       .  S
C402        C403   1.415       .  A
C403        C404   1.414       .  A
C403       Br410   1.939       .  S
C404        C405   1.428       .  A
C404       Br409   1.937       .  S
C405        C406   1.424       .  A
C406       Br407   1.928       .  S
C411        C412   1.421       .  A
C411        C416   1.414       .  A
C411       Br418   1.929       .  S
C412        C413   1.422       .  A
C413        C414   1.413       .  A
C413       Br420   1.940       .  S
C414        C415   1.418       .  A
C414       Br419   1.934       .  S
C415        C416   1.417       .  A
C416       Br417   1.940       .  S
C421        C422   1.418       .  A
C421        C426   1.412       .  A
C421       Br428   1.924       .  S
C422        C943   1.415   1_554  A
C423        C424   1.412       .  A
C423        C942   1.415       .  A
C423       Br430   1.932       .  S
C424        C945   1.419       .  A
C424       Br429   1.935       .  S
C425        C426   1.422       .  A
C425        C944   1.418   1_554  A
C426       Br427   1.945       .  S
C431        C432   1.422   1_556  A
C431        C436   1.410       .  A
C431       Br438   1.940       .  S
C432        C953   1.419       .  A
C433        C434   1.411       .  A
C433        C952   1.419       .  A
C433       Br440   1.936       .  S
C434        C955   1.414       .  A
C434       Br439   1.933       .  S
C435        C436   1.415   1_554  A
C435        C954   1.414       .  A
C436       Br437   1.935       .  S
C441        C442   1.408   1_455  A
C441        C446   1.407       .  A
C441       Br448   1.926       .  S
C442        C443   1.407       .  A
C443        C444   1.407       .  A
C443       Br450   1.924       .  S
C444        C445   1.405   1_655  A
C444       Br449   1.924       .  S
C445        C446   1.408       .  A
C446       Br447   1.926       .  S
C451        C452   1.409       .  A
C451        C456   1.408       .  A
C451       Br458   1.933   1_655  S
C452        C453   1.414       .  A
C453        C454   1.416       .  A
C453       Br460   1.927       .  S
C454        C455   1.411       .  A
C454       Br459   1.928       .  S
C455        C456   1.411       .  A
C456       Br457   1.921       .  S
C461        C462   1.410       .  A
C461        C466   1.406       .  A
C461       Br468   1.934       .  S
C462        C463   1.411       .  A
C463        C464   1.412       .  A
C463       Br470   1.925       .  S
C464        C465   1.410       .  A
C464       Br469   1.927       .  S
C465        C466   1.411       .  A
C466       Br467   1.920       .  S
C471        C476   1.407       .  A
C471        C992   1.405   1_455  A
C471       Br478   1.926       .  S
C472        C473   1.405       .  A
C472        C991   1.405   1_655  A
C473        C474   1.407   1_556  A
C473       Br480   1.925       .  S
C474        C475   1.407   1_655  A
C474       Br479   1.924       .  S
C475        C996   1.408       .  A
C476        C995   1.408       .  A
C476       Br477   1.924       .  S
C481        C482   1.422       .  A
C481        C486   1.411       .  A
C481       Br488   1.943       .  S
C482        C483   1.420       .  A
C483        C484   1.412       .  A
C483       Br490   1.941       .  S
C484        C485   1.422       .  A
C484       Br489   1.937       .  S
C485        C486   1.419       .  A
C486       Br487   1.935       .  S
C491        C492   1.411       .  A
C491        C496   1.413       .  A
C491       Br498   1.933       .  S
C492        C493   1.411       .  A
C493        C494   1.414       .  A
C493       Br500   1.931       .  S
C494        C495   1.430       .  A
C494       Br499   1.940       .  S
C495        C496   1.428       .  A
C496       Br497   1.938       .  S
C501        C506   1.414       .  A
C501       C1022   1.407       .  A
C501       Br508   1.924       .  S
C502        C503   1.408       .  A
C502       C1021   1.407       .  A
C503        C504   1.408       .  A
C503       Br510   1.924       .  S
C504        C505   1.408       .  A
C504       Br509   1.923   1_655  S
C505       C1026   1.413       .  A
C506       C1025   1.413       .  A
C506       Br507   1.925       .  S
C511        C516   1.407       .  A
C511       C1032   1.409       .  A
C511       Br518   1.924       .  S
C512        C513   1.408       .  A
C512       C1031   1.409       .  A
C513        C514   1.413       .  A
C513       Br520   1.922       .  S
C514        C515   1.409       .  A
C514       Br519   1.926       .  S
C515       C1036   1.408       .  A
C516       C1035   1.409       .  A
C516       Br517   1.927       .  S
C521        C523   1.549       .  S
C521        C525   1.552       .  S
C521        C524   1.526       .  S
C521       C1015   1.548       .  S
C522        C526   1.555       .  S
C522        C528   1.551       .  S
C522        C527   1.530       .  S
C522       C1005   1.540       .  S
C523        C531   1.381       .  A
C524        C535   1.375       .  A
C525        C539   1.384       .  A
C526        C529   1.387       .  A
C527        C533   1.383       .  A
C528        C536   1.384       .  A
C529        N530   1.361       .  A
C529        H542   1.080       .  S
N530       C1032   1.441       .  S
C531        H532   1.084       .  S
C533        H543   1.082       .  S
N534        C535   1.351       .  A
N534        C992   1.431       .  S
C535        H541   1.083       .  S
C536        N537   1.357       .  A
C536        H538   1.082       .  S
N537       C1022   1.441       .  S
C539        H540   1.082       .  S
C544        C546   1.554       .  S
C544        C548   1.554       .  S
C544        C547   1.539       .  S
C544       C1012   1.542       .  S
C545        C549   1.546       .  S
C545        C551   1.543       .  S
C545        C550   1.526       .  S
C545       C1002   1.538       .  S
C546        C554   1.386       .  A
C546        C549   1.399       .  A
C547        C558   1.384       .  A
C547        C550   1.384       .  A
C548        C562   1.387       .  A
C548        C551   1.398       .  A
C549        C552   1.382       .  A
C550        C556   1.374       .  A
C551        C559   1.379       .  A
C552        N553   1.358       .  A
C552        H565   1.082       .  S
N553        C554   1.361       .  A
N553        C975   1.446       .  S
C554        H555   1.082       .  S
C556        N557   1.352       .  A
C556        H566   1.082       .  S
N557        C558   1.359       .  A
N557        C962   1.434       .  S
C558        H564   1.083       .  S
C559        N560   1.354       .  A
C559        H561   1.084       .  S
N560        C562   1.362       .  A
N560        C985   1.444       .  S
C562        H563   1.080       .  S
C567        C569   1.550       .  S
C567        C571   1.546       .  S
C567        C570   1.535       .  S
C567        C935   1.541       .  S
C568        C572   1.537       .  S
C568        C574   1.551       .  S
C568        C573   1.545       .  S
C568        C922   1.546       .  S
C569        C577   1.387       .  A
C570        C581   1.378       .  A
C571        C585   1.381       .  A
C572        C575   1.376       .  A
C573        C579   1.384       .  A
C574        C582   1.381       .  A
C575        H588   1.082       .  S
N576        C577   1.366       .  A
N576        C942   1.458       .  S
C577        H578   1.081       .  S
C579        H589   1.082       .  S
N580        C581   1.353       .  A
C581        H587   1.083       .  S
C582        H584   1.080       .  S
N583        C585   1.359       .  A
N583        C955   1.450       .  S
C585        H586   1.082       .  S
C590        C592   1.538       .  S
C590        C594   1.556       .  S
C590        C593   1.557       .  S
C590        C925   1.554       .  S
C591        C595   1.549       .  S
C591        C597   1.560       .  S
C591        C596   1.526       .  S
C591        C932   1.546       .  S
C592        C600   1.377       .  A
C592        C595   1.386       .  A
C593        C604   1.393       .  A
C593        C596   1.389       .  A
C594        C608   1.388       .  A
C594        C597   1.405       .  A
C595        C598   1.389       .  A
C596        C602   1.374       .  A
C597        C605   1.387       .  A
C598        N599   1.365       .  A
C598        H611   1.081       .  S
N599        C600   1.359       .  A
N599        C892   1.458       .  S
C600        H601   1.081       .  S
C602        N603   1.350       .  A
C602        H612   1.081       .  S
N603        C604   1.361       .  A
N603        C885   1.438       .  S
C604        H610   1.082       .  S
C605        N606   1.362       .  A
C605        H607   1.081       .  S
N606        C608   1.362       .  A
N606        C902   1.452       .  S
C608        H609   1.083       .  S
C613        C615   1.540       .  S
C613        C617   1.526       .  S
C613        C616   1.546       .  S
C613        C842   1.538       .  S
C614        C618   1.551       .  S
C614        C620   1.531       .  S
C614        C619   1.550       .  S
C614        C852   1.542       .  S
C615        C623   1.379       .  A
C616        C627   1.381       .  A
C617        C631   1.376       .  A
C618        C621   1.384       .  A
C619        C625   1.382       .  A
C620        C628   1.379       .  A
C621        H634   1.081       .  S
N622        C623   1.355   1_554  A
C623        H624   1.084       .  S
C625        H635   1.083       .  S
N626        C627   1.355   1_554  A
N626        C912   1.437   1_554  S
C627        H633   1.081       .  S
C628        H630   1.082       .  S
N629        C631   1.356       .  A
C631        H632   1.083       .  S
C636        C638   1.529       .  S
C636        C640   1.541       .  S
C636        C639   1.541       .  S
C636        C845   1.535       .  S
C637        C641   1.533       .  S
C637        C643   1.548       .  S
C637        C642   1.559       .  S
C637        C855   1.544       .  S
C638        C646   1.379       .  A
C638        C641   1.380       .  A
C639        C650   1.378       .  A
C639        C642   1.399       .  A
C640        C654   1.380       .  A
C640        C643   1.402       .  A
C641        C644   1.379       .  A
C642        C648   1.390       .  A
C643        C651   1.382       .  A
C644        N645   1.360       .  A
C644        H657   1.083       .  S
N645        C646   1.358       .  A
N645        C825   1.444       .  S
C646        H647   1.082       .  S
C648        N649   1.361       .  A
C648        H658   1.080       .  S
N649        C650   1.352       .  A
N649        C882   1.440       .  S
C650        H656   1.084       .  S
C651        N652   1.358       .  A
C651        H653   1.083       .  S
N652        C654   1.355       .  A
N652        C832   1.443       .  S
C654        H655   1.082       .  S
C659        C661   1.557       .  S
C659        C663   1.546       .  S
C659        C662   1.532       .  S
C659        C782   1.548       .  S
C660        C664   1.540       .  S
C660        C666   1.533       .  S
C660        C665   1.552       .  S
C660        C792   1.547       .  S
C661        C669   1.388       .  A
C662        C673   1.370       .  A
C663        C677   1.386       .  A
C664        C667   1.377       .  A
C665        C671   1.390       .  A
C666        C674   1.376       .  A
C667        N668   1.352       .  A
C667        H680   1.082       .  S
C669        H670   1.082       .  S
C671        N672   1.361       .  A
C671        H681   1.082       .  S
N672        C995   1.434       .  S
C673        H679   1.083       .  S
C674        N675   1.353       .  A
C674        H676   1.084       .  S
C677        H678   1.082       .  S
C682        C684   1.549       .  S
C682        C686   1.551       .  S
C682        C685   1.534       .  S
C682        C785   1.546       .  S
C683        C687   1.535       .  S
C683        C689   1.557       .  S
C683        C688   1.537       .  S
C683        C795   1.548       .  S
C684        C692   1.386       .  A
C684        C687   1.394       .  A
C685        C696   1.380       .  A
C685        C688   1.387       .  A
C686        C700   1.382       .  A
C686        C689   1.405       .  A
C687        C690   1.377       .  A
C688        C694   1.380       .  A
C689        C697   1.384       .  A
C690        N691   1.354       .  A
C690        H703   1.081       .  S
N691        C692   1.358       .  A
N691        C762   1.437       .  S
C692        H693   1.082       .  S
C694        N695   1.354       .  A
C694        H704   1.083       .  S
N695        C696   1.355       .  A
N695        C965   1.433       .  S
C696        H702   1.082       .  S
C697        N698   1.361       .  A
C697        H699   1.084       .  S
N698        C700   1.357       .  A
N698        C772   1.445       .  S
C700        H701   1.080       .  S
O705       Ni713   1.936   1_655  S
O706       Ni713   1.930   1_565  S
O707       Ni713   1.926       .  S
O707        C717   1.283       .  A
O708       Ni713   1.923   1_665  S
O708        C718   1.282       .  A
O709       Ni714   1.911   1_665  S
O710       Ni714   1.914       .  S
O711       Ni714   1.931   1_565  S
O711        C716   1.283   1_556  A
O712       Ni714   1.921   1_655  S
O712        C715   1.280       .  A
C715       C1025   1.485       .  S
C716        C812   1.487       .  S
C717        C952   1.498       .  S
C718        C875   1.486       .  S
O719       Ni727   1.930   1_565  S
O719        C729   1.283       .  A
O720       Ni727   1.931   1_655  S
O720        C730   1.283       .  A
O721       Ni727   1.922   1_665  S
O721        C731   1.282       .  A
O722       Ni727   1.923       .  S
O722        C732   1.283       .  A
O723       Ni728   1.915   1_455  S
O723        C732   1.280       .  A
O724       Ni728   1.910   1_565  S
O724        C731   1.279       .  A
O725       Ni728   1.925       .  S
O725        C730   1.282       .  A
O726       Ni728   1.922   1_465  S
O726        C729   1.282       .  A
Ni727      Ni728   2.388   1_455  S
C729        C775   1.486       .  S
C730        C972   1.488       .  S
C731        C835   1.479       .  S
C732        C905   1.484       .  S
O733       Ni741   1.924       .  S
O734       Ni741   1.936       .  S
O735       Ni741   1.905       .  S
O735        C745   1.277       .  A
O736       Ni741   1.908       .  S
O736        C746   1.278       .  A
O737       Ni742   1.931       .  S
O738       Ni742   1.924       .  S
O739       Ni742   1.911       .  S
O739        C744   1.277       .  A
O740       Ni742   1.922       .  S
O740        C743   1.281   1_556  A
C743        C805   1.478       .  S
C744       C1035   1.479       .  S
C745        C865   1.490       .  S
C746        C945   1.502       .  S
O747       Ni755   1.928       .  S
O747        C757   1.282       .  A
O748       Ni755   1.921       .  S
O748        C758   1.280       .  A
O749       Ni755   1.924       .  S
O749        C759   1.282       .  A
O750       Ni755   1.923       .  S
O750        C760   1.282       .  A
O751       Ni756   1.917       .  S
O751        C760   1.281       .  A
O752       Ni756   1.919       .  S
O752        C759   1.280       .  A
O753       Ni756   1.926       .  S
O753        C758   1.283       .  A
O754       Ni756   1.916       .  S
O754        C757   1.280       .  A
Ni755      Ni756   2.383       .  S
C757        C982   1.481       .  S
C758        C765   1.479       .  S
C759        C895   1.507       .  S
C760        C822   1.488       .  S
C761        C762   1.405       .  A
C761        C766   1.410       .  A
C761       Br768   1.924       .  S
C762        C763   1.408       .  A
C763        C764   1.407       .  A
C763       Br770   1.925       .  S
C764        C765   1.408       .  A
C764       Br769   1.926       .  S
C765        C766   1.411       .  A
C766       Br767   1.925       .  S
C771        C772   1.409       .  A
C771        C776   1.408       .  A
C771       Br778   1.929       .  S
C772        C773   1.412       .  A
C773        C774   1.415       .  A
C773       Br780   1.927       .  S
C774        C775   1.414       .  A
C774       Br779   1.930       .  S
C775        C776   1.411       .  A
C776       Br777   1.930   1_455  S
C781        C782   1.419       .  A
C781        C786   1.417       .  A
C781       Br788   1.939       .  S
C782        C783   1.424       .  A
C783        C784   1.412       .  A
C783       Br790   1.940       .  S
C784        C785   1.419       .  A
C784       Br789   1.940       .  S
C785        C786   1.424       .  A
C786       Br787   1.940       .  S
C791        C792   1.417       .  A
C791        C796   1.413       .  A
C791       Br798   1.937       .  S
C792        C793   1.429       .  A
C793        C794   1.416       .  A
C793       Br800   1.942       .  S
C794        C795   1.414       .  A
C794       Br799   1.936       .  S
C795        C796   1.426       .  A
C796       Br797   1.941       .  S
C801        C802   1.404       .  A
C801        C806   1.409       .  A
C801       Br808   1.925       .  S
C803        C804   1.408       .  A
C803       Br810   1.925       .  S
C804       Br809   1.928       .  S
C805        C806   1.411       .  A
C806       Br807   1.924       .  S
C811        C812   1.410       .  A
C811        C816   1.410       .  A
C811       Br818   1.920       .  S
C813        C814   1.412       .  A
C813       Br820   1.926   1_455  S
C814       Br819   1.927       .  S
C815        C816   1.405       .  A
C816       Br817   1.926       .  S
C821        C822   1.416       .  A
C821        C826   1.412       .  A
C821       Br828   1.933       .  S
C822        C823   1.415       .  A
C823        C824   1.406       .  A
C823       Br830   1.936       .  S
C824        C825   1.410       .  A
C824       Br829   1.926       .  S
C825        C826   1.411       .  A
C826       Br827   1.930       .  S
C831        C832   1.413       .  A
C831        C836   1.408       .  A
C831       Br838   1.927       .  S
C832        C833   1.410       .  A
C833        C834   1.408       .  A
C833       Br840   1.929       .  S
C834        C835   1.413       .  A
C834       Br839   1.933   1_565  S
C835        C836   1.411       .  A
C836       Br837   1.934       .  S
C841        C842   1.424       .  A
C841        C846   1.409       .  A
C841       Br848   1.937       .  S
C842        C843   1.423       .  A
C843        C844   1.411       .  A
C843       Br850   1.940       .  S
C844        C845   1.418       .  A
C844       Br849   1.939       .  S
C845        C846   1.415       .  A
C846       Br847   1.941       .  S
C851        C852   1.422       .  A
C851        C856   1.415       .  A
C851       Br858   1.941       .  S
C852        C853   1.418       .  A
C853        C854   1.411       .  A
C853       Br860   1.937       .  S
C854        C855   1.421       .  A
C854       Br859   1.934       .  S
C855        C856   1.423       .  A
C856       Br857   1.941       .  S
C861        C866   1.407       .  A
C861       Br868   1.927       .  S
C862        C863   1.408       .  A
C863        C864   1.407       .  A
C863       Br870   1.933       .  S
C864        C865   1.422       .  A
C864       Br869   1.937       .  S
C866       Br867   1.938       .  S
C871        C876   1.411       .  A
C871       Br878   1.929       .  S
C872        C873   1.410       .  A
C873        C874   1.405       .  A
C873       Br880   1.928       .  S
C874        C875   1.416       .  A
C874       Br879   1.938       .  S
C876       Br877   1.933   1_565  S
C881        C882   1.411       .  A
C881        C886   1.410       .  A
C881       Br888   1.923       .  S
C882        C883   1.406   1_565  A
C883        C884   1.411       .  A
C883       Br890   1.923       .  S
C884        C885   1.410       .  A
C884       Br889   1.924       .  S
C885        C886   1.405   1_545  A
C886       Br887   1.925       .  S
C891        C892   1.415       .  A
C891        C896   1.417       .  A
C891       Br898   1.932       .  S
C892        C893   1.418       .  A
C893        C894   1.409       .  A
C893       Br900   1.928       .  S
C894        C895   1.419       .  A
C894       Br899   1.941       .  S
C895        C896   1.425       .  A
C896       Br897   1.937       .  S
C901        C902   1.413       .  A
C901        C906   1.410       .  A
C901       Br908   1.918       .  S
C902        C903   1.413       .  A
C903        C904   1.411       .  A
C903       Br910   1.917       .  S
C904        C905   1.409       .  A
C904       Br909   1.932       .  S
C905        C906   1.412       .  A
C906       Br907   1.936   1_545  S
C911        C912   1.410   1_554  A
C911        C916   1.406       .  A
C911       Br918   1.922       .  S
C913        C914   1.410       .  A
C913       Br920   1.924       .  S
C914       Br919   1.923       .  S
C915        C916   1.403   1_545  A
C916       Br917   1.925       .  S
C921        C922   1.417       .  A
C921        C926   1.417       .  A
C921       Br928   1.940       .  S
C922        C923   1.415       .  A
C923        C924   1.414       .  A
C923       Br930   1.939       .  S
C924        C925   1.428       .  A
C924       Br929   1.937       .  S
C925        C926   1.424       .  A
C926       Br927   1.928       .  S
C931        C932   1.421       .  A
C931        C936   1.414       .  A
C931       Br938   1.930       .  S
C932        C933   1.422       .  A
C933        C934   1.413       .  A
C933       Br940   1.940       .  S
C934        C935   1.418       .  A
C934       Br939   1.934       .  S
C935        C936   1.417       .  A
C936       Br937   1.940       .  S
C941        C942   1.418       .  A
C941        C946   1.412       .  A
C941       Br948   1.924       .  S
C943        C944   1.412       .  A
C943       Br950   1.932       .  S
C944       Br949   1.935       .  S
C945        C946   1.422       .  A
C946       Br947   1.945       .  S
C951        C952   1.422       .  A
C951        C956   1.410       .  A
C951       Br958   1.940       .  S
C953        C954   1.411       .  A
C953       Br960   1.936       .  S
C954       Br959   1.933       .  S
C955        C956   1.414       .  A
C956       Br957   1.935       .  S
C961        C962   1.408   1_455  A
C961        C966   1.407       .  A
C961       Br968   1.926       .  S
C962        C963   1.407       .  A
C963        C964   1.407       .  A
C963       Br970   1.924       .  S
C964        C965   1.405   1_655  A
C964       Br969   1.924       .  S
C965        C966   1.408       .  A
C966       Br967   1.926       .  S
C971        C972   1.409       .  A
C971        C976   1.407       .  A
C971       Br978   1.932   1_655  S
C972        C973   1.414       .  A
C973        C974   1.416       .  A
C973       Br980   1.927       .  S
C974        C975   1.411       .  A
C974       Br979   1.928       .  S
C975        C976   1.411       .  A
C976       Br977   1.921       .  S
C981        C982   1.410       .  A
C981        C986   1.406       .  A
C981       Br988   1.934       .  S
C982        C983   1.411       .  A
C983        C984   1.413       .  A
C983       Br990   1.925       .  S
C984        C985   1.411       .  A
C984       Br989   1.927       .  S
C985        C986   1.411       .  A
C986       Br987   1.920       .  S
C991        C996   1.407   1_556  A
C991       Br998   1.926       .  S
C992        C993   1.405       .  A
C993        C994   1.407       .  A
C993      Br1000   1.925       .  S
C994        C995   1.407   1_655  A
C994       Br999   1.924       .  S
C996       Br997   1.924       .  S
C1001      C1002   1.422       .  A
C1001      C1006   1.411       .  A
C1001     Br1008   1.943       .  S
C1002      C1003   1.420       .  A
C1003      C1004   1.412       .  A
C1003     Br1010   1.941       .  S
C1004      C1005   1.422       .  A
C1004     Br1009   1.938       .  S
C1005      C1006   1.419       .  A
C1006     Br1007   1.935       .  S
C1011      C1012   1.411       .  A
C1011      C1016   1.413       .  A
C1011     Br1018   1.934       .  S
C1012      C1013   1.411       .  A
C1013      C1014   1.414       .  A
C1013     Br1020   1.931       .  S
C1014      C1015   1.430       .  A
C1014     Br1019   1.941       .  S
C1015      C1016   1.428       .  A
C1016     Br1017   1.937       .  S
C1021      C1026   1.414       .  A
C1021     Br1028   1.924       .  S
C1022      C1023   1.408       .  A
C1023      C1024   1.408       .  A
C1023     Br1030   1.924       .  S
C1024      C1025   1.408       .  A
C1024     Br1029   1.923   1_655  S
C1026     Br1027   1.925       .  S
C1031      C1036   1.407       .  A
C1031     Br1038   1.924       .  S
C1032      C1033   1.408       .  A
C1033      C1034   1.413       .  A
C1033     Br1040   1.922       .  S
C1034      C1035   1.409       .  A
C1034     Br1039   1.926       .  S
C1036     Br1037   1.927       .  S
