geometry optimzed in LAMMPS
_audit_creation_date              2020-12-01 
_audit_creation_method            'lammps2cif' 
_symmetry_space_group_name_H-M    'P1' 
_symmetry_Int_Tables_number       1 
_symmetry_cell_setting            triclinic 
loop_ 
_symmetry_equiv_pos_as_xyz 
  x,y,z 
_cell_length_a                    34.43318493 
_cell_length_b                    36.73083267014583 
_cell_length_c                    36.50273605460887 
_cell_angle_alpha                 89.70330617334646 
_cell_angle_beta                  90.79038394024298 
_cell_angle_gamma                 91.29129501389433 
loop_ 
_atom_site_label 
_atom_site_type_symbol 
_atom_site_fract_x 
_atom_site_fract_y 
_atom_site_fract_z 
_atom_site_charge 
O1          O  0.50410859  0.03623494  0.16074608    -0.79300
O2          O  0.04904680  0.51591813  0.29542288    -0.79400
O3          O  0.48889577  0.06488448  0.29302829    -0.79400
O4          O  0.07290318  0.46381965  0.21501807    -0.79300
O5          O  0.99570762  0.02864944  0.34024152    -0.79400
O6          O  0.05931028  0.02017676  0.21190109    -0.79400
O7          O  0.06707644  0.45987534  0.28972510    -0.79300
O8          O  0.49644933  0.06819474  0.21203933    -0.79400
C9          C  0.50402607  0.06653401  0.17723324     1.10300
C10         C  0.07369970  0.49157888  0.30215416     1.10200
C11         C  0.48990600  0.05987704  0.32840887     1.10400
C12         C  0.07976494  0.49610844  0.20408868     1.10200
O13         O  0.51735499  0.46126862  0.17091793    -0.79300
O14         O  0.44453860  0.48078824  0.30931404    -0.79400
O15         O  0.42038939  0.03095395  0.20726927    -0.79400
O16         O  0.99632496  0.41649662  0.28142235    -0.79300
O17         O  0.00604961  0.45534195  0.32583901    -0.79400
O18         O  0.44969067  0.98691992  0.18259366    -0.79400
O19         O  0.00291219  0.42035457  0.20780805    -0.79300
O20         O  0.41393803  0.02790444  0.28105817    -0.79400
Co21       Co  0.50005578  0.00540913  0.20121662     1.51500
Co22       Co  0.99305307  0.49941243  0.29741168     1.51700
Co23       Co  0.45939602  0.04063746  0.24839834     1.51600
Co24       Co  0.03162844  0.44318799  0.24855613     1.51500
O25         O  0.99440223  0.98695479  0.24754287    -1.41300
C26         C  0.01181904  0.42984918  0.17578405     1.10300
C27         C  0.41050062  0.00155960  0.30299338     1.10400
C28         C  0.42044601  0.00611791  0.18364979     1.10300
C29         C  0.99653131  0.42373436  0.31507490     1.10300
O30         O  0.44173773  0.18593893  0.99549020    -0.79300
O31         O  0.00252074  0.32698067  0.45808550    -0.79400
O32         O  0.42084522  0.29085487  0.04000407    -0.79400
O33         O  0.98944737  0.20967253  0.42327670    -0.79300
O34         O  0.45020036  0.31193707  0.48756217    -0.79400
O35         O  0.50495730  0.17088841  0.46435897    -0.79400
O36         O  0.98731885  0.28293885  0.42034943    -0.79300
O37         O  0.41698916  0.21685571  0.03890175    -0.79400
C38         C  0.41340914  0.19221351  0.01535090     1.10300
C39         C  0.99131979  0.31639502  0.42674475     1.10200
C40         C  0.41625883  0.30983538  0.01158077     1.10400
C41         C  0.99427604  0.17715213  0.43309974     1.10200
O42         O  0.05441926  0.20935812  0.01758259    -0.79300
O43         O  0.00441658  0.34072069  0.02895879    -0.79400
O44         O  0.49394554  0.21059862  0.07245942    -0.79400
O45         O  0.06186939  0.28964762  0.45711166    -0.79300
O46         O  0.04997219  0.29315511  0.51485118    -0.79400
O47         O  0.49888967  0.16029624  0.03875124    -0.79400
O48         O  0.06288511  0.21311873  0.46078973    -0.79300
O49         O  0.49977943  0.29032958  0.06820113    -0.79400
Co50       Co  0.49512290  0.20141662  0.00907275     1.51500
Co51       Co  0.99349702  0.29838055  0.50359029     1.51700
Co52       Co  0.46163698  0.25168799  0.04704658     1.51600
Co53       Co  0.02277215  0.24890128  0.44405524     1.51500
O54         O  0.98606364  0.24912078  0.48954963    -1.41300
C55         C  0.07151919  0.20108316  0.49236322     1.10300
C56         C  0.50122445  0.32540778  0.06442796     1.10400
C57         C  0.50066706  0.17601529  0.06953738     1.10300
C58         C  0.07034519  0.30323279  0.48819438     1.10300
O59         O  0.32181599  0.01480406  0.03469334    -0.79300
O60         O  0.15709801  0.46776596  0.48931895    -0.79400
O61         O  0.21434942  0.04510908  0.08174111    -0.79400
O62         O  0.28055041  0.42732713  0.50166334    -0.79300
O63         O  0.18277634  0.50131272  0.05462646    -0.79400
O64         O  0.32466020  0.46180022  0.98196458    -0.79400
O65         O  0.20250966  0.43093762  0.50561045    -0.79300
O66         O  0.27083708  0.99606609  0.06659446    -0.79400
C67         C  0.30719420  0.00200721  0.06420348     1.10300
C68         C  0.16714018  0.43599030  0.49891143     1.10200
C69         C  0.18757732  0.02082463  0.08124802     1.10400
C70         C  0.31595468  0.43344937  0.49519364     1.10200
O71         O  0.29009605  0.01546344  0.43277532    -0.79300
O72         O  0.14547790  0.04018655  0.50074307    -0.79400
O73         O  0.27653426  0.06854540  0.03955998    -0.79400
O74         O  0.19992776  0.46415451  0.43156920    -0.79300
O75         O  0.19163689  0.52230214  0.44403861    -0.79400
O76         O  0.28502286  0.06500214  0.98145006    -0.79400
O77         O  0.27988667  0.45612932  0.42701156    -0.79300
O78         O  0.20160913  0.06752972  0.01235357    -0.79400
Co79       Co  0.30292296  0.01463010  0.98174850     1.51500
Co80       Co  0.19148779  0.51303049  0.49776038     1.51700
Co81       Co  0.23598894  0.02764757  0.03759713     1.51600
Co82       Co  0.24076667  0.44759414  0.46865057     1.51500
O83         O  0.24786806  0.99809490  0.49698751    -1.41300
C84         C  0.29338537  0.48580665  0.41327324     1.10300
C85         C  0.16481217  0.06907320  0.00474998     1.10400
C86         C  0.29048344  0.08235885  0.01058428     1.10300
C87         C  0.18690015  0.49538361  0.42251486     1.10300
C88         C  0.35813656  0.34519657  0.03361974     0.24400
C89         C  0.38609414  0.33829046  0.00682822    -0.23700
C90         C  0.40013593  0.37081430  0.47950295     0.19300
C91         C  0.37563838  0.40057717  0.47709112     0.24300
C92         C  0.34396629  0.40344008  0.50059344    -0.23700
C93         C  0.33406444  0.37564700  0.03027823     0.19200
F94         F  0.30687366  0.38123157  0.05612089    -0.13600
F95         F  0.35416177  0.32274725  0.06305096    -0.16000
F96         F  0.38251680  0.42618901  0.45086337    -0.16000
F97         F  0.42990475  0.36973359  0.45566669    -0.13600
C98         C  0.32531094  0.13465858  0.04300381     0.24400
C99         C  0.31724065  0.11492292  0.01070214    -0.23700
C100        C  0.33840988  0.12414490  0.97889240     0.19300
C101        C  0.36833387  0.15048933  0.98004354     0.24300
C102        C  0.37758237  0.16897523  0.01271282    -0.23700
C103        C  0.35500174  0.16152493  0.04393907     0.19200
F104        F  0.36340407  0.17836386  0.07620230    -0.13600
F105        F  0.30567319  0.12695879  0.07419375    -0.16000
F106        F  0.38728133  0.16072112  0.45020119    -0.16000
F107        F  0.32954465  0.11024008  0.44898662    -0.13600
C108        C  0.14089224  0.37687690  0.52594643     0.24400
C109        C  0.13964997  0.40378266  0.49822287    -0.23700
C110        C  0.11589737  0.39700253  0.46725579     0.19300
C111        C  0.09513073  0.36375140  0.46342516     0.24300
C112        C  0.09619584  0.33670598  0.49116560    -0.23700
C113        C  0.11857694  0.34426507  0.52294985     0.19200
F114        F  0.11947267  0.31975341  0.55087826    -0.13600
F115        F  0.16374038  0.38225399  0.55611611    -0.16000
F116        F  0.07320573  0.35850161  0.43265488    -0.16000
F117        F  0.11407908  0.42198323  0.43975544    -0.13600
C118        C  0.12519762  0.11317350  0.96922415     0.24400
C119        C  0.14547648  0.10475717  0.00147395    -0.23700
C120        C  0.14804285  0.13392498  0.52775592     0.19300
C121        C  0.12532524  0.16555266  0.52496868     0.24300
C122        C  0.09928349  0.17017837  0.49525805    -0.23700
C123        C  0.09699374  0.14252464  0.46851899     0.19200
F124        F  0.07391970  0.14604321  0.43841951    -0.13600
F125        F  0.12219000  0.08867003  0.94176337    -0.16000
F126        F  0.12892625  0.19159250  0.55109485    -0.16000
F127        F  0.16537261  0.12281968  0.06202762    -0.13600
C128        C  0.34954148  0.02366421  0.33345565     0.24400
C129        C  0.37452867  0.99493259  0.32542508    -0.23700
C130        C  0.37001686  0.45946788  0.34350177     0.19300
C131        C  0.33988908  0.45610280  0.36930371     0.24300
C132        C  0.31886611  0.48676567  0.38005092    -0.23700
C133        C  0.32120708  0.01976673  0.36078447     0.19200
F134        F  0.29932939  0.04892615  0.36875184    -0.13600
F135        F  0.35424901  0.05657121  0.31679808    -0.16000
F136        F  0.33304598  0.42323992  0.38540886    -0.16000
F137        F  0.39078117  0.42965839  0.33536171    -0.13600
C138        C  0.13386028  0.52574137  0.38460108     0.24400
C139        C  0.16236316  0.49879084  0.38821337    -0.23700
C140        C  0.16412804  0.47245342  0.36035780     0.19300
C141        C  0.13695159  0.47165759  0.33125083     0.24300
C142        C  0.10717468  0.49744541  0.32862087    -0.23700
C143        C  0.10700690  0.52529874  0.35505751     0.19200
F144        F  0.07925921  0.55089085  0.35381650    -0.13600
F145        F  0.12991784  0.55111299  0.41105285    -0.16000
F146        F  0.13911863  0.44457539  0.30623095    -0.16000
F147        F  0.19154661  0.44647341  0.36179437    -0.13600
C148        C  0.15485701  0.04269610  0.13892164     0.24400
C149        C  0.16333862  0.01418646  0.11459336    -0.23700
C150        C  0.15203530  0.47961053  0.12746342     0.19300
C151        C  0.12720644  0.47357860  0.15726116     0.24300
C152        C  0.11173106  0.50301608  0.17691355    -0.23700
C153        C  0.12991129  0.03671961  0.16884918     0.19200
F154        F  0.12112434  0.06521238  0.19053086    -0.13600
F155        F  0.16935291  0.07684062  0.13288877    -0.16000
F156        F  0.11694118  0.43862118  0.16556996    -0.16000
F157        F  0.16505872  0.45050293  0.10885292    -0.13600
C158        C  0.32248395  0.50444740  0.13403240     0.24400
C159        C  0.33299462  0.99809699  0.09694612    -0.23700
C160        C  0.36861307  0.98060648  0.09402776     0.19300
C161        C  0.39591280  0.98172927  0.12288000     0.24300
C162        C  0.38869499  0.00112305  0.15541524    -0.23700
C163        C  0.35244397  0.01791028  0.15863848     0.19200
F164        F  0.33971215  0.51720903  0.19636161    -0.13600
F165        F  0.28613766  0.51624070  0.14045323    -0.16000
F166        F  0.43041885  0.96538898  0.11788365    -0.16000
F167        F  0.37744860  0.96302017  0.06271075    -0.13600
C168        C  0.99516769  0.12759011  0.34201919     0.24400
C169        C  0.49211058  0.09079470  0.35417544    -0.23700
C170        C  0.49179027  0.08388878  0.39224867     0.19300
C171        C  0.49059203  0.11231287  0.41702866     0.24300
C172        C  0.99318792  0.14770900  0.40560915    -0.23700
C173        C  0.99300782  0.15561273  0.36771437     0.19200
F174        F  0.99135823  0.19047914  0.35534273    -0.13600
F175        F  0.99459953  0.13625551  0.30581883    -0.16000
F176        F  0.48958855  0.10397814  0.45332317    -0.16000
F177        F  0.49256752  0.04948194  0.40604070    -0.13600
C178        C  0.48193528  0.33786034  0.36543879     0.24400
C179        C  0.98576177  0.34276260  0.39728722    -0.23700
C180        C  0.97838883  0.37923076  0.40553516     0.19300
C181        C  0.97846876  0.40522170  0.37788862     0.24300
C182        C  0.98776895  0.39538367  0.34198824    -0.23700
C183        C  0.48242268  0.36463473  0.33848924     0.19200
F184        F  0.47308296  0.35507905  0.30352047    -0.13600
F185        F  0.47177926  0.30322836  0.35583584    -0.16000
F186        F  0.97087696  0.44025810  0.38654464    -0.16000
F187        F  0.97263141  0.39009695  0.44051174    -0.13600
C188        C  0.00698659  0.36541634  0.15464548     0.24400
C189        C  0.01635091  0.40224199  0.14734459    -0.23700
C190        C  0.52853332  0.40885679  0.11677213     0.19300
C191        C  0.52780068  0.38315799  0.08918029     0.24300
C192        C  0.51111728  0.34855909  0.09544394    -0.23700
C193        C  0.00781851  0.33988650  0.12676246     0.19200
F194        F  0.99576895  0.30517025  0.13404667    -0.13600
F195        F  0.99548212  0.35411071  0.18835202    -0.16000
F196        F  0.54196378  0.39264382  0.05583170    -0.16000
F197        F  0.54371818  0.44248680  0.10931171    -0.13600
C198        C  0.49319097  0.13189677  0.16232929     0.24400
C199        C  0.51326596  0.09967151  0.15599383    -0.23700
C200        C  0.03904494  0.09656281  0.12159547     0.19300
C201        C  0.03819048  0.12381289  0.09505829     0.24300
C202        C  0.51110565  0.15415033  0.10193529    -0.23700
C203        C  0.49205160  0.15906013  0.13531868     0.19200
F204        F  0.46884724  0.18799583  0.14015132    -0.13600
F205        F  0.47116021  0.13532609  0.19263230    -0.16000
F206        F  0.05646617  0.11839350  0.06287192    -0.16000
F207        F  0.05843898  0.06566259  0.11436961    -0.13600
O208        O  0.50571534  0.03734105  0.65899779    -0.79300
O209        O  0.04850703  0.52052253  0.79492030    -0.79400
O210        O  0.49328650  0.06758520  0.79155182    -0.79400
O211        O  0.07267881  0.46621217  0.71389701    -0.79300
O212        O  0.99291231  0.02896694  0.84001185    -0.79400
O213        O  0.05826093  0.02105824  0.71444087    -0.79400
O214        O  0.06966256  0.46540703  0.78855556    -0.79300
O215        O  0.49931497  0.06976495  0.71015616    -0.79400
C216        C  0.50624120  0.06777336  0.67525221     1.10300
C217        C  0.07469608  0.49739548  0.80102164     1.10200
C218        C  0.49471889  0.06253260  0.82694619     1.10400
C219        C  0.07872727  0.49831519  0.70237025     1.10200
O220        O  0.52080593  0.46347313  0.67100779    -0.79300
O221        O  0.43983482  0.48013776  0.80606899    -0.79400
O222        O  0.42365234  0.03105553  0.70749529    -0.79400
O223        O  0.00022110  0.41909280  0.78322865    -0.79300
O224        O  0.01004353  0.45886583  0.82647515    -0.79400
O225        O  0.45295863  0.98717206  0.68249323    -0.79400
O226        O  0.00411249  0.42107537  0.70975463    -0.79300
O227        O  0.41905626  0.02926006  0.78101698    -0.79400
Co228      Co  0.50338196  0.00689851  0.69980914     1.51500
Co229      Co  0.99342795  0.50130009  0.79752441     1.51700
Co230      Co  0.46350326  0.04221025  0.74753634     1.51600
Co231      Co  0.03343939  0.44586665  0.74895212     1.51500
O232        O  0.99111541  0.98776604  0.74680736    -1.41300
C233        C  0.01008653  0.43045194  0.67705799     1.10300
C234        C  0.41590256  0.00273334  0.80272159     1.10400
C235        C  0.42328540  0.00570274  0.68440581     1.10300
C236        C  0.00197235  0.42671191  0.81668853     1.10300
O237        O  0.44271073  0.18864803  0.49456765    -0.79300
O238        O  0.01011743  0.32556271  0.95729179    -0.79400
O239        O  0.42638054  0.29284119  0.53758643    -0.79400
O240        O  0.99483666  0.20910490  0.92137687    -0.79300
O241        O  0.44151004  0.30720691  0.98811093    -0.79400
O242        O  0.50573783  0.17169514  0.96495567    -0.79400
O243        O  0.99357153  0.28297829  0.91839642    -0.79300
O244        O  0.42090068  0.21843685  0.53991913    -0.79400
C245        C  0.41558790  0.19431718  0.51597693     1.10300
C246        C  0.99820573  0.31619196  0.92584378     1.10200
C247        C  0.42404616  0.31386148  0.51034969     1.10400
C248        C  0.00024545  0.17659654  0.93106863     1.10200
O249        O  0.05024745  0.20947905  0.51887287    -0.79300
O250        O  0.99524931  0.34156751  0.53051332    -0.79400
O251        O  0.49906424  0.21245997  0.57109318    -0.79400
O252        O  0.06791015  0.28797980  0.95580486    -0.79300
O253        O  0.05616579  0.28972554  0.01355182    -0.79400
O254        O  0.49850026  0.16113383  0.53833746    -0.79400
O255        O  0.06770970  0.21274029  0.95968965    -0.79300
O256        O  0.50524289  0.29215407  0.56707834    -0.79400
Co257      Co  0.49691013  0.20176996  0.50795796     1.51500
Co258      Co  0.00019201  0.29755037  0.00260820     1.51700
Co259      Co  0.46645698  0.25337751  0.54601492     1.51600
Co260      Co  0.02818773  0.24821620  0.94235083     1.51500
O261        O  0.99087900  0.24869143  0.98758836    -1.41300
C262        C  0.07612092  0.20112059  0.99139993     1.10300
C263        C  0.50932853  0.32708190  0.56259284     1.10400
C264        C  0.50327424  0.17745206  0.56861375     1.10300
C265        C  0.07639905  0.30078026  0.98716545     1.10300
O266        O  0.32160955  0.01646198  0.53845824    -0.79300
O267        O  0.15531740  0.46909559  0.98904697    -0.79400
O268        O  0.21318111  0.04813047  0.58457511    -0.79400
O269        O  0.27673750  0.42657199  0.00132803    -0.79300
O270        O  0.18309844  0.50167427  0.55395271    -0.79400
O271        O  0.32681784  0.46381310  0.48111364    -0.79400
O272        O  0.20054727  0.43263890  0.00554832    -0.79300
O273        O  0.27039513  0.99908272  0.57085341    -0.79400
C274        C  0.30692880  0.00387266  0.56805812     1.10300
C275        C  0.16533009  0.43742038  0.99877774     1.10200
C276        C  0.18711191  0.02315271  0.58468139     1.10400
C277        C  0.31232085  0.43169439  0.99564538     1.10200
O278        O  0.29053395  0.01497559  0.92909554    -0.79300
O279        O  0.14588483  0.03981275  0.99782634    -0.79400
O280        O  0.27640426  0.07101956  0.54272007    -0.79400
O281        O  0.19818357  0.46657299  0.93073884    -0.79300
O282        O  0.19069516  0.52438704  0.94509658    -0.79400
O283        O  0.28546582  0.06666055  0.48478914    -0.79400
O284        O  0.27783331  0.45551427  0.92647274    -0.79300
O285        O  0.20067000  0.06919387  0.51439669    -0.79400
Co286      Co  0.30275327  0.01594066  0.48550264     1.51500
Co287      Co  0.19060914  0.51361478  0.99854282     1.51700
Co288      Co  0.23552995  0.03009897  0.54092480     1.51600
Co289      Co  0.23837998  0.44826519  0.96811039     1.51500
O290        O  0.24797478  0.99694002  0.99273043    -1.41300
C291        C  0.29204521  0.48498955  0.91296082     1.10300
C292        C  0.16379901  0.07003482  0.50648222     1.10400
C293        C  0.29110955  0.08429414  0.51378657     1.10300
C294        C  0.18590177  0.49837153  0.92255100     1.10300
C295        C  0.36315342  0.34628090  0.53021631     0.24400
C296        C  0.39456526  0.34312860  0.50618107    -0.23700
C297        C  0.38840959  0.36220015  0.97636653     0.19300
C298        C  0.36586649  0.39320950  0.97403723     0.24300
C299        C  0.33858875  0.40052484  0.00091273    -0.23700
C300        C  0.33791692  0.37588534  0.52717993     0.19200
F301        F  0.30791583  0.37792994  0.55077402    -0.13600
F302        F  0.35685351  0.32087429  0.55671388    -0.16000
F303        F  0.36989822  0.41552497  0.94451306    -0.16000
F304        F  0.41287538  0.35595535  0.94846237    -0.13600
C305        C  0.32898777  0.13520340  0.54635307     0.24400
C306        C  0.31863999  0.11663839  0.51379460    -0.23700
C307        C  0.33819473  0.12685982  0.48132976     0.19300
C308        C  0.36830215  0.15320877  0.48182768     0.24300
C309        C  0.37953888  0.17081953  0.51454990    -0.23700
C310        C  0.35890572  0.16204278  0.54667914     0.19200
F311        F  0.36945395  0.17757821  0.57908739    -0.13600
F312        F  0.31142174  0.12632516  0.57834107    -0.16000
F313        F  0.38916163  0.15703722  0.94926909    -0.16000
F314        F  0.33174691  0.10639111  0.94678581    -0.13600
C315        C  0.13781163  0.37980415  0.02727094     0.24400
C316        C  0.13867657  0.40483122  0.99781668    -0.23700
C317        C  0.12000845  0.39483240  0.96483905     0.19300
C318        C  0.10188742  0.36037133  0.96094504     0.24300
C319        C  0.10059349  0.33521329  0.99046460    -0.23700
C320        C  0.11818300  0.34582705  0.02395757     0.19200
F321        F  0.11701116  0.32305358  0.05334948    -0.13600
F322        F  0.15621692  0.38824737  0.05933194    -0.16000
F323        F  0.08497846  0.35203728  0.92815575    -0.16000
F324        F  0.12100794  0.41779318  0.93557309    -0.13600
C325        C  0.11719548  0.11013472  0.47280300     0.24400
C326        C  0.14332470  0.10536564  0.50215767    -0.23700
C327        C  0.14590303  0.13015740  0.03036259     0.19300
C328        C  0.12421312  0.16232003  0.02749548     0.24300
C329        C  0.10421458  0.17076028  0.99468151    -0.23700
C330        C  0.10692027  0.14644042  0.96501977     0.19200
F331        F  0.08988471  0.15367697  0.93211549    -0.13600
F332        F  0.11081289  0.08317214  0.44806933    -0.16000
F333        F  0.12244498  0.18485148  0.05674138    -0.16000
F334        F  0.17321449  0.13043219  0.55642750    -0.13600
C335        C  0.35521223  0.02487728  0.83303707     0.24400
C336        C  0.37994963  0.99599354  0.82499529    -0.23700
C337        C  0.36452568  0.45877788  0.83900648     0.19300
C338        C  0.33508419  0.45523973  0.86555340     0.24300
C339        C  0.31611112  0.48617676  0.87872023    -0.23700
C340        C  0.32581296  0.02069677  0.85921558     0.19200
F341        F  0.30437335  0.05011036  0.86731409    -0.13600
F342        F  0.36119281  0.05821246  0.81758776    -0.16000
F343        F  0.32679281  0.42179001  0.87974643    -0.16000
F344        F  0.38353772  0.42864663  0.82854758    -0.13600
C345        C  0.13135821  0.52868398  0.88659923     0.24400
C346        C  0.16216622  0.50383150  0.88794726    -0.23700
C347        C  0.16735588  0.48165971  0.85708830     0.19300
C348        C  0.14085001  0.48206061  0.82731877     0.24300
C349        C  0.10807952  0.50456004  0.82739932    -0.23700
C350        C  0.10478818  0.52908056  0.85677018     0.19200
F351        F  0.07414328  0.55159547  0.85817250    -0.13600
F352        F  0.12496145  0.55080202  0.91545150    -0.16000
F353        F  0.14659283  0.45928631  0.79881471    -0.16000
F354        F  0.19774926  0.45880145  0.85603519    -0.13600
C355        C  0.15114855  0.04538845  0.64024438     0.24400
C356        C  0.16331335  0.01639931  0.61819845    -0.23700
C357        C  0.14682775  0.48077427  0.62323792     0.19300
C358        C  0.12135109  0.47530635  0.65245264     0.24300
C359        C  0.11004040  0.50462069  0.67470067    -0.23700
C360        C  0.12641252  0.03896190  0.67023122     0.19200
F361        F  0.11414342  0.06782236  0.68970231    -0.13600
F362        F  0.16144915  0.08025140  0.63159633    -0.16000
F363        F  0.10642694  0.44117871  0.65776284    -0.16000
F364        F  0.15556921  0.45188545  0.60203904    -0.13600
C365        C  0.32377033  0.50379827  0.63223665     0.24400
C366        C  0.33327110  0.99820432  0.60027028    -0.23700
C367        C  0.36934868  0.98182665  0.59561578     0.19300
C368        C  0.39726822  0.98190213  0.62395747     0.24300
C369        C  0.39049480  0.99969707  0.65746527    -0.23700
C370        C  0.35351600  0.01438390  0.66283072     0.19200
F371        F  0.34185373  0.51819359  0.69376163    -0.13600
F372        F  0.28804115  0.51717227  0.63845703    -0.16000
F373        F  0.43190578  0.96630855  0.61754740    -0.16000
F374        F  0.37811455  0.96654864  0.56305982    -0.13600
C375        C  0.98700910  0.12604751  0.84135093     0.24400
C376        C  0.49685270  0.09318728  0.85307722    -0.23700
C377        C  0.49546165  0.08565602  0.89104007     0.19300
C378        C  0.49370511  0.11358104  0.91627058     0.24300
C379        C  0.99985932  0.14733893  0.90348774    -0.23700
C380        C  0.98653671  0.15375162  0.86737568     0.19200
F381        F  0.97195859  0.18643483  0.85737826    -0.13600
F382        F  0.97196144  0.13241613  0.80739215    -0.16000
F383        F  0.49152961  0.10464406  0.95235949    -0.16000
F384        F  0.49527311  0.05104608  0.90433029    -0.13600
C385        C  0.48351864  0.33665070  0.86389909     0.24400
C386        C  0.99292303  0.34408630  0.89780793    -0.23700
C387        C  0.99457962  0.38098281  0.90787786     0.19300
C388        C  0.99553072  0.40785812  0.88136366     0.24300
C389        C  0.99583007  0.39838990  0.84418165    -0.23700
C390        C  0.48517646  0.36325430  0.83678163     0.19200
F391        F  0.48598161  0.35252653  0.80126478    -0.13600
F392        F  0.48238060  0.30117519  0.85359632    -0.16000
F393        F  0.99789135  0.44311308  0.89243367    -0.16000
F394        F  0.99748393  0.39140866  0.94341293    -0.13600
C395        C  0.99634111  0.36745056  0.65510181     0.24400
C396        C  0.01101771  0.40289056  0.64840100    -0.23700
C397        C  0.53154177  0.41205943  0.61549452     0.19300
C398        C  0.53233322  0.38641581  0.58776598     0.24300
C399        C  0.51764052  0.35091698  0.59380666    -0.23700
C400        C  0.99590390  0.34175907  0.62735832     0.19200
F401        F  0.97924465  0.30848875  0.63374462    -0.13600
F402        F  0.98060691  0.35804428  0.68783043    -0.16000
F403        F  0.54623239  0.39681494  0.55457016    -0.16000
F404        F  0.54503291  0.44632908  0.60816772    -0.13600
C405        C  0.49890353  0.13403526  0.66154082     0.24400
C406        C  0.51604142  0.10058316  0.65374636    -0.23700
C407        C  0.04038963  0.10239597  0.62605690     0.19300
C408        C  0.03816123  0.12939249  0.59934566     0.24300
C409        C  0.51493738  0.15571346  0.60056919    -0.23700
C410        C  0.49842145  0.16163258  0.63495865     0.19200
F411        F  0.47816688  0.19220117  0.64132819    -0.13600
F412        F  0.47899515  0.13855373  0.69298306    -0.16000
F413        F  0.05928094  0.12622504  0.56843979    -0.16000
F414        F  0.06401586  0.07390339  0.62055983    -0.13600
O415        O  0.49932579  0.53256672  0.15915770    -0.79300
O416        O  0.05507055  0.01724779  0.29481380    -0.79400
O417        O  0.48973133  0.56473379  0.29185575    -0.79400
O418        O  0.07480353  0.96327080  0.21449790    -0.79300
O419        O  0.98871366  0.52586419  0.34045870    -0.79400
O420        O  0.05504216  0.52003014  0.21103329    -0.79400
O421        O  0.06999921  0.96035956  0.28889151    -0.79300
O422        O  0.49550094  0.56656054  0.20939029    -0.79400
C423        C  0.50029057  0.56361396  0.17415157     1.10300
C424        C  0.07840026  0.99165144  0.30148147     1.10200
C425        C  0.49157020  0.56002676  0.32737616     1.10400
C426        C  0.08283143  0.99555083  0.20410861     1.10200
O427        O  0.51614431  0.96330556  0.17116789    -0.79300
O428        O  0.43962857  0.98245776  0.30792035    -0.79400
O429        O  0.42100560  0.52670967  0.20736895    -0.79400
O430        O  0.99810750  0.91883515  0.28315497    -0.79300
O431        O  0.01048857  0.95877427  0.32596989    -0.79400
O432        O  0.44963392  0.48113667  0.18505069    -0.79400
O433        O  0.00337747  0.92123010  0.20856421    -0.79300
O434        O  0.41705746  0.52471565  0.28121749    -0.79400
Co435      Co  0.49992137  0.50296783  0.20045593     1.51500
Co436      Co  0.99844624  0.00247193  0.29729914     1.51700
Co437      Co  0.46080886  0.53851799  0.24762776     1.51600
Co438      Co  0.03336079  0.94405472  0.24878116     1.51500
O439        O  0.99110349  0.48471970  0.24727143    -1.41300
C440        C  0.01194269  0.93047274  0.17633575     1.10300
C441        C  0.41484242  0.49911925  0.30409128     1.10400
C442        C  0.42046951  0.50047832  0.18525636     1.10300
C443        C  0.00047133  0.92693036  0.31664591     1.10300
O444        O  0.43882381  0.69157853  0.98948545    -0.79300
O445        O  0.01159720  0.82493895  0.45780535    -0.79400
O446        O  0.42686050  0.79302064  0.03695134    -0.79400
O447        O  0.99545034  0.70884444  0.42067565    -0.79300
O448        O  0.44637681  0.81002334  0.48664432    -0.79400
O449        O  0.50782378  0.67108517  0.46398421    -0.79400
O450        O  0.99574749  0.78311275  0.41793070    -0.79300
O451        O  0.42002571  0.71842609  0.03792211    -0.79400
C452        C  0.41297207  0.69601243  0.01259884     1.10300
C453        C  0.00022918  0.81621564  0.42604930     1.10200
C454        C  0.42452425  0.81437189  0.00999646     1.10400
C455        C  0.99929677  0.67621913  0.43085379     1.10200
O456        O  0.05304177  0.70907347  0.01629353    -0.79300
O457        O  0.00095892  0.83992499  0.02796463    -0.79400
O458        O  0.49709970  0.71048778  0.06916065    -0.79400
O459        O  0.06895715  0.78646780  0.45792420    -0.79300
O460        O  0.05521900  0.78954114  0.51531741    -0.79400
O461        O  0.49125305  0.66069455  0.03467032    -0.79400
O462        O  0.06723713  0.71101210  0.46101224    -0.79300
O463        O  0.50527151  0.79160609  0.06591136    -0.79400
Co464      Co  0.49314892  0.70168262  0.00456532     1.51500
Co465      Co  0.99955584  0.79710818  0.50254774     1.51700
Co466      Co  0.46612388  0.75290023  0.04436151     1.51600
Co467      Co  0.02887538  0.74743059  0.44288927     1.51500
O468        O  0.99055649  0.74861029  0.48741048    -1.41300
C469        C  0.07495680  0.70012193  0.49314389     1.10300
C470        C  0.50875658  0.82669348  0.06138550     1.10400
C471        C  0.49732516  0.67520016  0.06567239     1.10300
C472        C  0.07680058  0.79948554  0.48941097     1.10300
O473        O  0.32133167  0.51199673  0.03640061    -0.79300
O474        O  0.15890361  0.96586848  0.49140693    -0.79400
O475        O  0.21408272  0.54620171  0.08328726    -0.79400
O476        O  0.28324042  0.92995969  0.50700748    -0.79300
O477        O  0.18244686  0.00126887  0.05175061    -0.79400
O478        O  0.32858176  0.96499208  0.98075334    -0.79400
O479        O  0.20503521  0.93090591  0.50993111    -0.79300
O480        O  0.26979532  0.49578738  0.06865678    -0.79400
C481        C  0.30644619  0.49976780  0.06604526     1.10300
C482        C  0.16969571  0.93466276  0.50217122     1.10200
C483        C  0.18770798  0.52146769  0.08360489     1.10400
C484        C  0.31839007  0.93635833  0.49985358     1.10200
O485        O  0.28947691  0.51487501  0.43072599    -0.79300
O486        O  0.14665925  0.54234993  0.50180148    -0.79400
O487        O  0.27839939  0.56832669  0.04135784    -0.79400
O488        O  0.20240362  0.96200478  0.43475827    -0.79300
O489        O  0.19308813  0.02030498  0.44500875    -0.79400
O490        O  0.28818894  0.56446825  0.98333844    -0.79400
O491        O  0.28199197  0.95636892  0.43089913    -0.79300
O492        O  0.20400842  0.56908140  0.01263684    -0.79400
Co493      Co  0.30223819  0.51273484  0.98352054     1.51500
Co494      Co  0.19155667  0.01252235  0.49901773     1.51700
Co495      Co  0.23622755  0.52850273  0.03906053     1.51600
Co496      Co  0.24316267  0.94778920  0.47286936     1.51500
O497        O  0.24735780  0.49699171  0.49424793    -1.41300
C498        C  0.29366861  0.98605023  0.41574010     1.10300
C499        C  0.16699703  0.57197675  0.00709450     1.10400
C500        C  0.29303533  0.58201792  0.01252805     1.10300
C501        C  0.18963409  0.99282220  0.42405970     1.10300
C502        C  0.35901171  0.84179218  0.02105626     0.24400
C503        C  0.39688278  0.84485651  0.00770382    -0.23700
C504        C  0.39557767  0.86839630  0.47828834     0.19300
C505        C  0.37346868  0.89984322  0.47739063     0.24300
C506        C  0.34642294  0.90641612  0.50477933    -0.23700
C507        C  0.33372172  0.87119866  0.01795439     0.19200
F508        F  0.29706164  0.86659253  0.03064001    -0.13600
F509        F  0.34604786  0.80998591  0.03610888    -0.16000
F510        F  0.37771373  0.92332364  0.44883347    -0.16000
F511        F  0.41947121  0.86268426  0.44982733    -0.13600
C512        C  0.33074474  0.63297866  0.04530081     0.24400
C513        C  0.31871514  0.61570093  0.01250226    -0.23700
C514        C  0.33485475  0.62874955  0.97931997     0.19300
C515        C  0.36385118  0.65618868  0.97923246     0.24300
C516        C  0.37710276  0.67225943  0.01210100    -0.23700
C517        C  0.35928978  0.66110636  0.04505104     0.19200
F518        F  0.37153487  0.67547909  0.07751355    -0.13600
F519        F  0.31652302  0.62141987  0.07795307    -0.16000
F520        F  0.38962262  0.65789798  0.44981454    -0.16000
F521        F  0.33305818  0.60635682  0.44876483    -0.13600
C522        C  0.13690424  0.87905303  0.53108177     0.24400
C523        C  0.14368245  0.90143653  0.50021304    -0.23700
C524        C  0.13006900  0.88900178  0.46593489     0.19300
C525        C  0.11077368  0.85503654  0.46231314     0.24300
C526        C  0.10307945  0.83271648  0.49321055    -0.23700
C527        C  0.11609280  0.84556910  0.52778779     0.19200
F528        F  0.10876710  0.82572004  0.55849666    -0.13600
F529        F  0.14999284  0.88983043  0.56461157    -0.16000
F530        F  0.09865806  0.84462889  0.42831883    -0.16000
F531        F  0.13646002  0.90939879  0.43544596    -0.13600
C532        C  0.14836134  0.62707707  0.97051422     0.24400
C533        C  0.14936389  0.60831472  0.00404033    -0.23700
C534        C  0.13315487  0.62359336  0.53634749     0.19300
C535        C  0.11257665  0.65619083  0.53324848     0.24300
C536        C  0.10582724  0.67230498  0.49866248    -0.23700
C537        C  0.12440667  0.65722726  0.46801379     0.19200
F538        F  0.12045020  0.67220518  0.43412166    -0.13600
F539        F  0.16667947  0.61355673  0.94100330    -0.16000
F540        F  0.09788911  0.67106213  0.56391765    -0.16000
F541        F  0.13329912  0.60668109  0.06745302    -0.13600
C542        C  0.35682877  0.52348747  0.33634346     0.24400
C543        C  0.37934329  0.49340327  0.32710041    -0.23700
C544        C  0.36760013  0.96113857  0.34314461     0.19300
C545        C  0.33867852  0.95703969  0.36999328     0.24300
C546        C  0.31650280  0.98689029  0.38073682    -0.23700
C547        C  0.32728612  0.52028992  0.36236961     0.19200
F548        F  0.30810629  0.55078307  0.37149067    -0.13600
F549        F  0.36536117  0.55700134  0.32233036    -0.16000
F550        F  0.33414422  0.92432381  0.38698125    -0.16000
F551        F  0.38985548  0.93218091  0.33546129    -0.13600
C552        C  0.14740095  0.02724933  0.37784286     0.24400
C553        C  0.16670426  0.99521674  0.38855615    -0.23700
C554        C  0.16082308  0.96413639  0.36648215     0.19300
C555        C  0.13425986  0.96409618  0.33699307     0.24300
C556        C  0.11209838  0.99510432  0.32829713    -0.23700
C557        C  0.12002716  0.02706892  0.34858673     0.19200
F558        F  0.10037289  0.05789991  0.34110505    -0.13600
F559        F  0.15439601  0.05879309  0.39609976    -0.16000
F560        F  0.12920168  0.93260784  0.31798895    -0.16000
F561        F  0.17992796  0.93294527  0.37389029    -0.13600
C562        C  0.15000867  0.54440750  0.13781277     0.24400
C563        C  0.16345699  0.51507488  0.11697989    -0.23700
C564        C  0.14761111  0.97936752  0.12203914     0.19300
C565        C  0.12375516  0.97312282  0.15240803     0.24300
C566        C  0.11376346  0.00184407  0.17595752    -0.23700
C567        C  0.12380392  0.53854509  0.16676919     0.19200
F568        F  0.10959827  0.56779167  0.18429371    -0.13600
F569        F  0.16095482  0.57906105  0.12922947    -0.16000
F570        F  0.10884588  0.93895908  0.15747276    -0.16000
F571        F  0.15527714  0.95106488  0.09977371    -0.13600
C572        C  0.32477987  0.01608374  0.12984968     0.24400
C573        C  0.33280508  0.49371005  0.09843352    -0.23700
C574        C  0.37074145  0.48143286  0.09314593     0.19300
C575        C  0.39818521  0.48166014  0.12196238     0.24300
C576        C  0.38882189  0.49484976  0.15698210    -0.23700
C577        C  0.35030091  0.50539240  0.16285884     0.19200
F578        F  0.34412059  0.03703384  0.18915535    -0.13600
F579        F  0.29096243  0.03401169  0.13318457    -0.16000
F580        F  0.43484973  0.47113846  0.11472346    -0.16000
F581        F  0.38172361  0.47007218  0.05956323    -0.13600
C582        C  0.98767465  0.62441593  0.34133257     0.24400
C583        C  0.49270671  0.59090750  0.35327560    -0.23700
C584        C  0.49095231  0.58387050  0.39135852     0.19300
C585        C  0.49180234  0.61222385  0.41636560     0.24300
C586        C  0.99740176  0.64624074  0.40386966    -0.23700
C587        C  0.98856866  0.65291813  0.36662215     0.19200
F588        F  0.98047311  0.68695635  0.35450476    -0.13600
F589        F  0.97812498  0.63176675  0.30589166    -0.16000
F590        F  0.49058777  0.60386397  0.45264440    -0.16000
F591        F  0.48798865  0.54941293  0.40492813    -0.13600
C592        C  0.48019346  0.83568902  0.36293156     0.24400
C593        C  0.99477528  0.84495100  0.39878923    -0.23700
C594        C  0.00529717  0.88103621  0.40793771     0.19300
C595        C  0.00479274  0.90797909  0.38154731     0.24300
C596        C  0.99446948  0.89942310  0.34513434    -0.23700
C597        C  0.47918703  0.86248377  0.33601559     0.19200
F598        F  0.47420381  0.85224250  0.30053551    -0.13600
F599        F  0.47611998  0.80031116  0.35263736    -0.16000
F600        F  0.01653143  0.94208977  0.39167137    -0.16000
F601        F  0.01789122  0.89042563  0.44214094    -0.13600
C602        C  0.00780879  0.86556039  0.15504157     0.24400
C603        C  0.01402161  0.90288647  0.14725885    -0.23700
C604        C  0.52094658  0.91398707  0.11320221     0.19300
C605        C  0.52365380  0.88860949  0.08545654     0.24300
C606        C  0.51580933  0.85142021  0.09241332    -0.23700
C607        C  0.00739826  0.84002155  0.12682807     0.19200
F608        F  0.99921385  0.80458223  0.13499932    -0.13600
F609        F  0.00147101  0.85365947  0.18978367    -0.16000
F610        F  0.53251498  0.90095795  0.05135476    -0.16000
F611        F  0.52701895  0.94967658  0.10461913    -0.13600
C612        C  0.49664902  0.63076554  0.15964466     0.24400
C613        C  0.50853235  0.59553990  0.15045470    -0.23700
C614        C  0.03288326  0.59380606  0.12077126     0.19300
C615        C  0.03130060  0.62001133  0.09331867     0.24300
C616        C  0.50681311  0.65075425  0.09662968    -0.23700
C617        C  0.49592392  0.65836535  0.13280183     0.19200
F618        F  0.48152274  0.69129729  0.14140905    -0.13600
F619        F  0.48299775  0.63774243  0.19355169    -0.16000
F620        F  0.04703569  0.61213319  0.06050735    -0.16000
F621        F  0.05209250  0.56264220  0.11416635    -0.13600
O622        O  0.50614624  0.53592090  0.65893322    -0.79300
O623        O  0.05181609  0.01654356  0.79417315    -0.79400
O624        O  0.48588305  0.56546367  0.79005563    -0.79400
O625        O  0.07207098  0.96380860  0.71484124    -0.79300
O626        O  0.98758234  0.52781516  0.84036189    -0.79400
O627        O  0.05375763  0.52203791  0.70922221    -0.79400
O628        O  0.06590381  0.95946861  0.78884361    -0.79300
O629        O  0.49325985  0.56793107  0.70911966    -0.79400
C630        C  0.50342707  0.56630899  0.67494090     1.10300
C631        C  0.07504528  0.99090421  0.80063664     1.10200
C632        C  0.48426561  0.56149608  0.82549999     1.10400
C633        C  0.08139039  0.99631683  0.70613151     1.10200
O634        O  0.51984226  0.96486475  0.66979823    -0.79300
O635        O  0.44515769  0.98373317  0.80733435    -0.79400
O636        O  0.41965485  0.52509292  0.70595092    -0.79400
O637        O  0.99312264  0.91912621  0.78140352    -0.79300
O638        O  0.00619349  0.95778903  0.82523433    -0.79400
O639        O  0.45334210  0.48479791  0.67973013    -0.79400
O640        O  0.99930243  0.92380590  0.70710072    -0.79300
O641        O  0.41353569  0.52521917  0.77920798    -0.79400
Co642      Co  0.50232275  0.50552658  0.69979075     1.51500
Co643      Co  0.99505731  0.00228858  0.79697804     1.51700
Co644      Co  0.45803695  0.53890245  0.74613744     1.51600
Co645      Co  0.02946006  0.94453768  0.74804158     1.51500
O646        O  0.99151690  0.48592713  0.74751052    -1.41300
C647        C  0.00883410  0.93315291  0.67517631     1.10300
C648        C  0.41050696  0.49892790  0.80120307     1.10400
C649        C  0.42199659  0.50077448  0.68200339     1.10300
C650        C  0.99483918  0.92646612  0.81511192     1.10300
O651        O  0.44418397  0.68620121  0.49534404    -0.79300
O652        O  0.00997912  0.82550897  0.95569120    -0.79400
O653        O  0.42525615  0.79283966  0.53822624    -0.79400
O654        O  0.99602690  0.70926761  0.91878152    -0.79300
O655        O  0.44960955  0.81199791  0.98628467    -0.79400
O656        O  0.50279807  0.67052685  0.96107570    -0.79400
O657        O  0.99487913  0.78285687  0.91639372    -0.79300
O658        O  0.42000573  0.71837834  0.53816946    -0.79400
C659        C  0.41605155  0.69301639  0.51533355     1.10300
C660        C  0.99803351  0.81613671  0.92419373     1.10200
C661        C  0.42166233  0.81316018  0.51063564     1.10400
C662        C  0.99934583  0.67663627  0.92882669     1.10200
O663        O  0.05201962  0.70815640  0.51848841    -0.79300
O664        O  0.00259175  0.84052287  0.52859774    -0.79400
O665        O  0.49738955  0.71210060  0.57126730    -0.79400
O666        O  0.06804502  0.78718730  0.95583307    -0.79300
O667        O  0.05460509  0.79035644  0.01329918    -0.79400
O668        O  0.50202189  0.66131442  0.53813061    -0.79400
O669        O  0.06798097  0.71166252  0.95876700    -0.79300
O670        O  0.50347712  0.79247451  0.56639014    -0.79400
Co671      Co  0.49802058  0.70178445  0.50778221     1.51500
Co672      Co  0.99872842  0.79706709  0.00075415     1.51700
Co673      Co  0.46523036  0.75320540  0.54551909     1.51600
Co674      Co  0.02884231  0.74775465  0.94101416     1.51500
O675        O  0.99052306  0.74813992  0.98559990    -1.41300
C676        C  0.07599297  0.70110825  0.99096852     1.10300
C677        C  0.50538559  0.82755195  0.56174340     1.10400
C678        C  0.50392476  0.67742194  0.56871427     1.10300
C679        C  0.07587761  0.80035042  0.98717910     1.10300
O680        O  0.32197777  0.51248716  0.53590595    -0.79300
O681        O  0.15886119  0.96590420  0.98681446    -0.79400
O682        O  0.21561406  0.54511920  0.58382879    -0.79400
O683        O  0.28248927  0.92835068  0.00098254    -0.79300
O684        O  0.18238297  0.00284844  0.55568278    -0.79400
O685        O  0.32850290  0.96644968  0.48472816    -0.79400
O686        O  0.20491189  0.93035366  0.00436004    -0.79300
O687        O  0.27071828  0.49450929  0.56774824    -0.79400
C688        C  0.30727952  0.49875986  0.56498657     1.10300
C689        C  0.16954268  0.93461843  0.99728933     1.10200
C690        C  0.18831988  0.52132800  0.58324779     1.10400
C691        C  0.31787381  0.93456074  0.99494531     1.10200
O692        O  0.28951299  0.51386186  0.93099623    -0.79300
O693        O  0.14610772  0.54331161  0.00321944    -0.79400
O694        O  0.27895990  0.56780269  0.54198235    -0.79400
O695        O  0.20248068  0.96274123  0.92982449    -0.79300
O696        O  0.19296671  0.02083896  0.94109707    -0.79400
O697        O  0.28660171  0.56493530  0.48376240    -0.79400
O698        O  0.28234826  0.95610172  0.92593415    -0.79300
O699        O  0.20388370  0.56849029  0.51406881    -0.79400
Co700      Co  0.30257749  0.51383097  0.48315835     1.51500
Co701      Co  0.19178045  0.01201490  0.99514718     1.51700
Co702      Co  0.23697550  0.52772737  0.53935873     1.51600
Co703      Co  0.24297924  0.94733778  0.96743767     1.51500
O704        O  0.24648927  0.49722190  0.99424958    -1.41300
C705        C  0.29492639  0.98592898  0.91178397     1.10300
C706        C  0.16694145  0.57108029  0.50765892     1.10400
C707        C  0.29290178  0.58188425  0.51305798     1.10300
C708        C  0.18966819  0.99367667  0.91965085     1.10300
C709        C  0.36726254  0.85086956  0.53624889     0.24400
C710        C  0.39324752  0.84342275  0.50786318    -0.23700
C711        C  0.40954677  0.87853401  0.99266582     0.19300
C712        C  0.38451309  0.90791613  0.98965103     0.24300
C713        C  0.34594215  0.90461041  0.00160175    -0.23700
C714        C  0.34356078  0.88162806  0.53432710     0.19200
F715        F  0.31836126  0.88763501  0.56181166    -0.13600
F716        F  0.36498821  0.82869201  0.56602489    -0.16000
F717        F  0.39817379  0.93945040  0.97450398    -0.16000
F718        F  0.44674549  0.88342304  0.98147474    -0.13600
C719        C  0.32871570  0.63456991  0.54506952     0.24400
C720        C  0.31999081  0.61456943  0.51299210    -0.23700
C721        C  0.34035933  0.62410117  0.48075966     0.19300
C722        C  0.36999441  0.65087632  0.48118773     0.24300
C723        C  0.38003731  0.66952917  0.51359249    -0.23700
C724        C  0.35817291  0.66189367  0.54527886     0.19200
F725        F  0.36692530  0.67922643  0.57720000    -0.13600
F726        F  0.30978674  0.62689102  0.57664705    -0.16000
F727        F  0.37992705  0.66620779  0.94683049    -0.16000
F728        F  0.32388607  0.61395588  0.94665987    -0.13600
C729        C  0.13832240  0.87899524  0.02706242     0.24400
C730        C  0.14311189  0.90187288  0.99623914    -0.23700
C731        C  0.12725197  0.89024354  0.96255828     0.19300
C732        C  0.10765777  0.85645168  0.95944729     0.24300
C733        C  0.10184599  0.83367799  0.99039341    -0.23700
C734        C  0.11690678  0.84585616  0.02444916     0.19200
F735        F  0.11126770  0.82557431  0.05518924    -0.13600
F736        F  0.15432999  0.88876599  0.05980630    -0.16000
F737        F  0.09348793  0.84661581  0.92595453    -0.16000
F738        F  0.13204821  0.91108135  0.93207412    -0.13600
C739        C  0.14585893  0.62533799  0.47146076     0.24400
C740        C  0.14883619  0.60730988  0.50523370    -0.23700
C741        C  0.13214868  0.62398702  0.03460960     0.19300
C742        C  0.11220549  0.65680772  0.03134913     0.24300
C743        C  0.10704510  0.67357301  0.99687125    -0.23700
C744        C  0.12706506  0.65911931  0.96673831     0.19200
F745        F  0.12468109  0.67488758  0.93308377    -0.13600
F746        F  0.16279522  0.61140561  0.44142668    -0.16000
F747        F  0.09632290  0.67113599  0.06171917    -0.16000
F748        F  0.13648624  0.60719435  0.56958014    -0.13600
C749        C  0.35399131  0.52351859  0.83540278     0.24400
C750        C  0.37497948  0.49317548  0.82417340    -0.23700
C751        C  0.37242484  0.96201403  0.84211304     0.19300
C752        C  0.34252553  0.95765594  0.86798535     0.24300
C753        C  0.31974355  0.98735503  0.87807009    -0.23700
C754        C  0.32523076  0.52013664  0.86215221     0.19200
F755        F  0.30757474  0.55085149  0.87309671    -0.13600
F756        F  0.36346492  0.55734843  0.82273194    -0.16000
F757        F  0.33777514  0.92493536  0.88496155    -0.16000
F758        F  0.39496200  0.93315058  0.83479932    -0.13600
C759        C  0.14743212  0.02811102  0.87322663     0.24400
C760        C  0.16659784  0.99613154  0.88422131    -0.23700
C761        C  0.16027324  0.96481743  0.86256400     0.19300
C762        C  0.13262361  0.96423372  0.83402633     0.24300
C763        C  0.10986235  0.99491755  0.82591985    -0.23700
C764        C  0.11882209  0.02738552  0.84504221     0.19200
F765        F  0.09921469  0.05820314  0.83732520    -0.13600
F766        F  0.15632368  0.06019489  0.88968072    -0.16000
F767        F  0.12718603  0.93258973  0.81537578    -0.16000
F768        F  0.18007778  0.93392607  0.86947347    -0.13600
C769        C  0.15347285  0.54445683  0.63913595     0.24400
C770        C  0.16312521  0.51539425  0.61593806    -0.23700
C771        C  0.15171885  0.98082831  0.62802840     0.19300
C772        C  0.12759671  0.97428478  0.65817571     0.24300
C773        C  0.11351225  0.00332015  0.67923460    -0.23700
C774        C  0.12656572  0.53929865  0.66764602     0.19200
F775        F  0.11666230  0.56821988  0.68824016    -0.13600
F776        F  0.16897589  0.57825951  0.63341759    -0.16000
F777        F  0.11660323  0.93929965  0.66546961    -0.16000
F778        F  0.16374699  0.95209427  0.60828543    -0.13600
C779        C  0.32503981  0.01320074  0.63469946     0.24400
C780        C  0.33343054  0.49175374  0.59701227    -0.23700
C781        C  0.37046359  0.47738554  0.59185127     0.19300
C782        C  0.39817104  0.47756105  0.62043521     0.24300
C783        C  0.38991225  0.49319549  0.65471895    -0.23700
C784        C  0.35178040  0.50480439  0.66068377     0.19200
F785        F  0.34520564  0.03075730  0.69494830    -0.13600
F786        F  0.29037209  0.02899738  0.64030654    -0.16000
F787        F  0.43388608  0.46437163  0.61362520    -0.16000
F788        F  0.38030177  0.46411713  0.55866621    -0.13600
C789        C  0.00888495  0.62277603  0.84202355     0.24400
C790        C  0.48301605  0.59308144  0.85024425    -0.23700
C791        C  0.47029217  0.58783013  0.88651590     0.19300
C792        C  0.47230108  0.61625522  0.91154478     0.24300
C793        C  0.99463839  0.64760093  0.90179619    -0.23700
C794        C  0.01197097  0.65117021  0.86725183     0.19200
F795        F  0.03337584  0.68144131  0.85863022    -0.13600
F796        F  0.02720541  0.62611801  0.80943030    -0.16000
F797        F  0.46005563  0.61017271  0.94630881    -0.16000
F798        F  0.45577126  0.55507226  0.89794915    -0.13600
C799        C  0.48088392  0.83933582  0.86365617     0.24400
C800        C  0.98956389  0.84416075  0.89669227    -0.23700
C801        C  0.99141556  0.88106640  0.90673213     0.19300
C802        C  0.98932464  0.90797289  0.88018717     0.24300
C803        C  0.98661562  0.89855961  0.84293209    -0.23700
C804        C  0.48147152  0.86642997  0.83690204     0.19200
F805        F  0.46902315  0.85799757  0.80243882    -0.13600
F806        F  0.46803147  0.80535912  0.85432854    -0.16000
F807        F  0.99193700  0.94325921  0.89111620    -0.16000
F808        F  0.99663747  0.89143923  0.94217046    -0.13600
C809        C  0.99824292  0.86927643  0.65340464     0.24400
C810        C  0.01010311  0.90557680  0.64616413    -0.23700
C811        C  0.52906770  0.91249305  0.61441457     0.19300
C812        C  0.52935045  0.88646809  0.58697169     0.24300
C813        C  0.51210212  0.85193489  0.59273165    -0.23700
C814        C  0.99937334  0.84312134  0.62605125     0.19200
F815        F  0.98554669  0.80897387  0.63336802    -0.13600
F816        F  0.98452942  0.85901724  0.68668601    -0.16000
F817        F  0.54574484  0.89538923  0.55439492    -0.16000
F818        F  0.54539094  0.94579192  0.60750372    -0.13600
C819        C  0.49337320  0.63229650  0.66053357     0.24400
C820        C  0.51295164  0.59975348  0.65404339    -0.23700
C821        C  0.02956045  0.59309832  0.61974162     0.19300
C822        C  0.02947882  0.62018543  0.59321208     0.24300
C823        C  0.51390757  0.65563713  0.60130080    -0.23700
C824        C  0.49398940  0.66024511  0.63425257     0.19200
F825        F  0.47169079  0.68979378  0.63921579    -0.13600
F826        F  0.47043712  0.63557352  0.69023842    -0.16000
F827        F  0.04480878  0.61269546  0.56009199    -0.16000
F828        F  0.04625926  0.56097134  0.61169273    -0.13600
O829        O  0.00770211  0.03651022  0.15903391    -0.79300
O830        O  0.55309049  0.51881406  0.29451093    -0.79400
O831        O  0.99520708  0.06582263  0.29193398    -0.79400
O832        O  0.57305665  0.46421715  0.21462552    -0.79300
O833        O  0.49008085  0.02803600  0.34161552    -0.79400
O834        O  0.55465825  0.01951600  0.21439052    -0.79400
O835        O  0.57040044  0.46248524  0.28898866    -0.79300
O836        O  0.00033615  0.06880192  0.21018369    -0.79400
C837        C  0.00784741  0.06691176  0.17534782     1.10300
C838        C  0.57807876  0.49437502  0.30030681     1.10200
C839        C  0.99587123  0.06060737  0.32734891     1.10400
C840        C  0.57928828  0.49641761  0.20303970     1.10200
O841        O  0.01839787  0.46312854  0.16876909    -0.79300
O842        O  0.94016245  0.47848582  0.30555581    -0.79400
O843        O  0.92424198  0.03037143  0.20828336    -0.79400
O844        O  0.49987825  0.41855409  0.28551087    -0.79300
O845        O  0.51180416  0.45924033  0.32759033    -0.79400
O846        O  0.95357038  0.98732468  0.18169535    -0.79400
O847        O  0.50305860  0.41971705  0.21165367    -0.79300
O848        O  0.92015098  0.02923218  0.28197627    -0.79400
Co849      Co  0.00444332  0.00580237  0.19958402     1.51500
Co850      Co  0.49701193  0.50189991  0.29842824     1.51700
Co851      Co  0.96462309  0.04123779  0.24792613     1.51600
Co852      Co  0.53339891  0.44417102  0.25021463     1.51500
O853        O  0.48913794  0.98639531  0.24878446    -1.41300
C854        C  0.51047322  0.42830032  0.17908569     1.10300
C855        C  0.91667730  0.00243957  0.30330726     1.10400
C856        C  0.92369047  0.00555003  0.18459081     1.10300
C857        C  0.50162006  0.42731314  0.31879021     1.10300
O858        O  0.94347678  0.18665399  0.99375212    -0.79300
O859        O  0.51352177  0.32637998  0.45961014    -0.79400
O860        O  0.92630128  0.29056548  0.03744168    -0.79400
O861        O  0.49202406  0.21109619  0.42180054    -0.79300
O862        O  0.94052473  0.30781822  0.48690073    -0.79400
O863        O  0.00301561  0.17006216  0.46616737    -0.79400
O864        O  0.49456231  0.28501614  0.42039591    -0.79300
O865        O  0.92256526  0.21655223  0.03960773    -0.79400
C866        C  0.91677507  0.19239927  0.01578702     1.10300
C867        C  0.50029210  0.31797529  0.42838758     1.10200
C868        C  0.92272278  0.31161511  0.01038990     1.10400
C869        C  0.49513551  0.17832451  0.43164788     1.10200
O870        O  0.55138322  0.21152392  0.01947901    -0.79300
O871        O  0.49512774  0.34014559  0.03350072    -0.79400
O872        O  0.00068172  0.21178356  0.07047484    -0.79400
O873        O  0.56925824  0.28594473  0.45779828    -0.79300
O874        O  0.55747445  0.28918242  0.51568688    -0.79400
O875        O  0.99986470  0.16037034  0.03798026    -0.79400
O876        O  0.56554573  0.21051353  0.45910353    -0.79300
O877        O  0.00575642  0.29178937  0.06514692    -0.79400
Co878      Co  0.99767812  0.20073182  0.00709309     1.51500
Co879      Co  0.50184328  0.29817098  0.50434764     1.51700
Co880      Co  0.96742188  0.25211048  0.04511291     1.51600
Co881      Co  0.52761087  0.24829197  0.44327609     1.51500
O882        O  0.49096329  0.24971841  0.48887443    -1.41300
C883        C  0.57444664  0.19920468  0.49080543     1.10300
C884        C  0.00892173  0.32678053  0.06040946     1.10400
C885        C  0.00460486  0.17671314  0.06823600     1.10300
C886        C  0.57834998  0.29878423  0.48909198     1.10300
O887        O  0.82031618  0.01432356  0.04068522    -0.79300
O888        O  0.65700238  0.46674104  0.48798656    -0.79400
O889        O  0.71095410  0.04658452  0.08594772    -0.79400
O890        O  0.78026701  0.43042619  0.50489352    -0.79300
O891        O  0.68222496  0.50044885  0.05310131    -0.79400
O892        O  0.82558858  0.46087159  0.98287822    -0.79400
O893        O  0.70323845  0.43265635  0.50721348    -0.79300
O894        O  0.76834988  0.99783444  0.07237966    -0.79400
C895        C  0.80499778  0.00214585  0.07012022     1.10300
C896        C  0.66808433  0.43572009  0.49894212     1.10200
C897        C  0.68460655  0.02182419  0.08490214     1.10400
C898        C  0.81561892  0.43613421  0.49844066     1.10200
O899        O  0.79257409  0.01673612  0.43134980    -0.79300
O900        O  0.64565567  0.03770823  0.49904229    -0.79400
O901        O  0.77588324  0.07033328  0.04571353    -0.79400
O902        O  0.70140919  0.46452984  0.43157219    -0.79300
O903        O  0.69168914  0.52251995  0.44323598    -0.79400
O904        O  0.78545712  0.06617923  0.98794964    -0.79400
O905        O  0.78088880  0.45702095  0.42898687    -0.79300
O906        O  0.70029531  0.06994913  0.01638935    -0.79400
Co907      Co  0.80242593  0.01548858  0.98753530     1.51500
Co908      Co  0.68967158  0.51326310  0.49701862     1.51700
Co909      Co  0.73437270  0.02975551  0.04228336     1.51600
Co910      Co  0.74132270  0.44908772  0.47028992     1.51500
O911        O  0.74880049  0.99751763  0.49450901    -1.41300
C912        C  0.79344366  0.48649869  0.41415094     1.10300
C913        C  0.66341857  0.07133299  0.00854801     1.10400
C914        C  0.79109160  0.08361429  0.01699219     1.10300
C915        C  0.68925581  0.49577529  0.42129235     1.10300
C916        C  0.85452329  0.33569247  0.01672902     0.24400
C917        C  0.89387533  0.34117966  0.00848519    -0.23700
C918        C  0.88680516  0.36290592  0.47590586     0.19300
C919        C  0.86683932  0.39563705  0.47485462     0.24300
C920        C  0.84241949  0.40515994  0.50346110    -0.23700
C921        C  0.82846430  0.36467123  0.01360959     0.19200
F922        F  0.79046932  0.35788692  0.02105428    -0.13600
F923        F  0.84107096  0.30210982  0.02668956    -0.16000
F924        F  0.87050463  0.41750589  0.44505032    -0.16000
F925        F  0.90625786  0.35316761  0.44558302    -0.13600
C926        C  0.83114540  0.13359725  0.04915311     0.24400
C927        C  0.81875778  0.11589455  0.01671412    -0.23700
C928        C  0.83640716  0.12690944  0.98347908     0.19300
C929        C  0.86712144  0.15259892  0.98306788     0.24300
C930        C  0.88053612  0.16915424  0.01557174    -0.23700
C931        C  0.86134229  0.16019181  0.04850288     0.19200
F932        F  0.87346140  0.17543478  0.08060437    -0.13600
F933        F  0.81532456  0.12414975  0.08180057    -0.16000
F934        F  0.87510519  0.17091524  0.45115265    -0.16000
F935        F  0.81581468  0.12144821  0.44918124    -0.13600
C936        C  0.63827631  0.37933807  0.52848967     0.24400
C937        C  0.64297735  0.40195838  0.49744192    -0.23700
C938        C  0.62939858  0.38876557  0.46344651     0.19300
C939        C  0.61106903  0.35426647  0.46052451     0.24300
C940        C  0.60460850  0.33209576  0.49182685    -0.23700
C941        C  0.61855844  0.34528738  0.52591664     0.19200
F942        F  0.61327728  0.32519036  0.55683805    -0.13600
F943        F  0.65270231  0.39029952  0.56149379    -0.16000
F944        F  0.59877905  0.34311479  0.42682213    -0.16000
F945        F  0.63526021  0.40876064  0.43255220    -0.13600
C946        C  0.61851577  0.11238059  0.97429706     0.24400
C947        C  0.64326322  0.10686513  0.00453050    -0.23700
C948        C  0.65073780  0.13200683  0.52480583     0.19300
C949        C  0.62850762  0.16380118  0.52220886     0.24300
C950        C  0.60074624  0.16759402  0.49388282    -0.23700
C951        C  0.59566084  0.13884813  0.46864297     0.19200
F952        F  0.57091458  0.14160644  0.43967293    -0.13600
F953        F  0.61186251  0.08545672  0.94968481    -0.16000
F954        F  0.63447470  0.19091397  0.54688368    -0.16000
F955        F  0.66919618  0.12992055  0.06138976    -0.13600
C956        C  0.85425442  0.02380788  0.33202726     0.24400
C957        C  0.88121533  0.99599628  0.32651704    -0.23700
C958        C  0.86794009  0.45965744  0.34277127     0.19300
C959        C  0.83815817  0.45632246  0.36887289     0.24300
C960        C  0.81714927  0.48692027  0.37968669    -0.23700
C961        C  0.82539881  0.02021225  0.35894942     0.19200
F962        F  0.80165263  0.04860630  0.36463164    -0.13600
F963        F  0.85712929  0.05556103  0.31294389    -0.16000
F964        F  0.83120008  0.42340104  0.38470834    -0.16000
F965        F  0.88956456  0.43012174  0.33566294    -0.13600
C966        C  0.64774432  0.53132452  0.37519926     0.24400
C967        C  0.66806434  0.49954130  0.38491450    -0.23700
C968        C  0.66492874  0.46991498  0.36064574     0.19300
C969        C  0.63869035  0.47023714  0.33086203     0.24300
C970        C  0.61340447  0.49966642  0.32489481    -0.23700
C971        C  0.61992584  0.53111612  0.34628712     0.19200
F972        F  0.59864441  0.56126033  0.34014751    -0.13600
F973        F  0.65455351  0.56262093  0.39380157    -0.16000
F974        F  0.63703880  0.44060936  0.30874848    -0.16000
F975        F  0.68661536  0.43989827  0.36607005    -0.13600
C976        C  0.64926164  0.04332934  0.14121395     0.24400
C977        C  0.65952588  0.01479088  0.11763511    -0.23700
C978        C  0.64742929  0.47981863  0.12346394     0.19300
C979        C  0.62283377  0.47385900  0.15334458     0.24300
C980        C  0.61021193  0.50312750  0.17493576    -0.23700
C981        C  0.62406417  0.03692576  0.17084793     0.19200
F982        F  0.61357503  0.06545956  0.19173101    -0.13600
F983        F  0.66210811  0.07791516  0.13458427    -0.16000
F984        F  0.60991613  0.43925730  0.15986704    -0.16000
F985        F  0.65748510  0.45089443  0.10296737    -0.13600
C986        C  0.82352475  0.51395753  0.13188642     0.24400
C987        C  0.83105250  0.99645232  0.10261376    -0.23700
C988        C  0.86619894  0.97836481  0.09834925     0.19300
C989        C  0.89509569  0.97952145  0.12583892     0.24300
C990        C  0.89001257  0.99944852  0.15843145    -0.23700
C991        C  0.85372382  0.01571783  0.16365870     0.19200
F992        F  0.84453316  0.53505584  0.19070807    -0.13600
F993        F  0.79046478  0.53301447  0.13544823    -0.16000
F994        F  0.92905605  0.96277331  0.11931823    -0.16000
F995        F  0.87315927  0.96042792  0.06677071    -0.13600
C996        C  0.49184367  0.12710394  0.34169596     0.24400
C997        C  0.99769266  0.09116563  0.35368830    -0.23700
C998        C  0.99861100  0.08355979  0.39168482     0.19300
C999        C  0.99588293  0.11131020  0.41713023     0.24300
C1000       C  0.49100680  0.14862245  0.40472361    -0.23700
C1001       C  0.49138713  0.15577892  0.36674960     0.19200
F1002       F  0.49223897  0.19047660  0.35372150    -0.13600
F1003       F  0.49227904  0.13504524  0.30533600    -0.16000
F1004       F  0.99627914  0.10223308  0.45326651    -0.16000
F1005       F  0.00186345  0.04905314  0.40476569    -0.13600
C1006       C  0.99145789  0.33237628  0.36077222     0.24400
C1007       C  0.49362402  0.34660073  0.40141664    -0.23700
C1008       C  0.50152345  0.38310937  0.41090771     0.19300
C1009       C  0.50104451  0.40987761  0.38426621     0.24300
C1010       C  0.49395337  0.40046391  0.34745892    -0.23700
C1011       C  0.99258074  0.35857948  0.33325767     0.19200
F1012       F  0.00121217  0.34815221  0.29871491    -0.13600
F1013       F  0.99934032  0.29742303  0.35203100    -0.16000
F1014       F  0.50956471  0.44468924  0.39455038    -0.16000
F1015       F  0.51126337  0.39305263  0.44571857    -0.13600
C1016       C  0.49948366  0.36433636  0.15839449     0.24400
C1017       C  0.51280300  0.40015162  0.15115399    -0.23700
C1018       C  0.03055114  0.41224327  0.11265410     0.19300
C1019       C  0.03143215  0.38665345  0.08482304     0.24300
C1020       C  0.01809363  0.35075653  0.09125030    -0.23700
C1021       C  0.49864942  0.33864520  0.13058991     0.19200
F1022       F  0.48282298  0.30510562  0.13734675    -0.13600
F1023       F  0.48540188  0.35454063  0.19169113    -0.16000
F1024       F  0.04388805  0.39743341  0.05121907    -0.16000
F1025       F  0.04274570  0.44689388  0.10520324    -0.13600
C1026       C  0.99982046  0.13316332  0.16132515     0.24400
C1027       C  0.01751823  0.09988624  0.15384380    -0.23700
C1028       C  0.53640193  0.09714980  0.12471072     0.19300
C1029       C  0.53523525  0.12412646  0.09784326     0.24300
C1030       C  0.01601861  0.15492761  0.10033861    -0.23700
C1031       C  0.99910086  0.16067167  0.13459118     0.19200
F1032       F  0.97824937  0.19094040  0.14066168    -0.13600
F1033       F  0.97970402  0.13758336  0.19265685    -0.16000
F1034       F  0.55550318  0.11953688  0.06660622    -0.16000
F1035       F  0.55784037  0.06720513  0.11877635    -0.13600
O1036       O  0.01004846  0.03926764  0.65977863    -0.79300
O1037       O  0.54788670  0.52021624  0.79642760    -0.79400
O1038       O  0.99406038  0.06531887  0.79079322    -0.79400
O1039       O  0.57364807  0.46560458  0.71740267    -0.79300
O1040       O  0.49513305  0.03066908  0.84002960    -0.79400
O1041       O  0.55799820  0.02226644  0.71179746    -0.79400
O1042       O  0.56654831  0.46411621  0.79160552    -0.79300
O1043       O  0.99684246  0.07017947  0.71056014    -0.79400
C1044       C  0.00732225  0.06919767  0.67653233     1.10300
C1045       C  0.57295934  0.49614396  0.80317323     1.10200
C1046       C  0.99540406  0.06060290  0.82613922     1.10400
C1047       C  0.58067884  0.49791424  0.70650341     1.10200
O1048       O  0.01668597  0.46355244  0.66927273    -0.79300
O1049       O  0.94192179  0.47773359  0.80623827    -0.79400
O1050       O  0.92118846  0.03060619  0.70876809    -0.79400
O1051       O  0.49658224  0.41976000  0.78488363    -0.79300
O1052       O  0.50608331  0.45988907  0.82807788    -0.79400
O1053       O  0.95369883  0.99162985  0.67909944    -0.79400
O1054       O  0.50398463  0.42134076  0.71052332    -0.79300
O1055       O  0.91791053  0.03080903  0.78270348    -0.79400
Co1056     Co  0.00389711  0.00811138  0.69967235     1.51500
Co1057     Co  0.49222745  0.50249605  0.79782905     1.51700
Co1058     Co  0.96181621  0.04185329  0.74791255     1.51600
Co1059     Co  0.53190383  0.44558000  0.75102396     1.51500
O1060       O  0.49389086  0.98834658  0.74782455    -1.41300
C1061       C  0.51300133  0.43040231  0.67834541     1.10300
C1062       C  0.91370414  0.00385616  0.80367628     1.10400
C1063       C  0.92275537  0.00797118  0.68307390     1.10300
C1064       C  0.49690880  0.42787862  0.81843262     1.10300
O1065       O  0.93874165  0.18739394  0.49661025    -0.79300
O1066       O  0.50348559  0.32807461  0.96088837    -0.79400
O1067       O  0.92138060  0.29251714  0.53968660    -0.79400
O1068       O  0.49010257  0.21162728  0.92300605    -0.79300
O1069       O  0.94791635  0.31035246  0.98658356    -0.79400
O1070       O  0.00868566  0.16949807  0.96415411    -0.79400
O1071       O  0.48814187  0.28542319  0.92163702    -0.79300
O1072       O  0.91706400  0.21839951  0.54146413    -0.79400
C1073       C  0.91158510  0.19410063  0.51782504     1.10300
C1074       C  0.49198935  0.31874412  0.92924114     1.10200
C1075       C  0.91611531  0.31117532  0.51113606     1.10400
C1076       C  0.49576297  0.17910881  0.93224666     1.10200
O1077       O  0.55400928  0.20882867  0.51741349    -0.79300
O1078       O  0.50650305  0.34113139  0.53103176    -0.79400
O1079       O  0.99523722  0.21318774  0.57225238    -0.79400
O1080       O  0.56219423  0.28999091  0.95864663    -0.79300
O1081       O  0.55054552  0.29293333  0.01655667    -0.79400
O1082       O  0.99571280  0.16116906  0.54053834    -0.79400
O1083       O  0.56372451  0.21449647  0.96132919    -0.79300
O1084       O  0.00057373  0.29255997  0.56624762    -0.79400
Co1085     Co  0.99316334  0.20131148  0.50933879     1.51500
Co1086     Co  0.49412571  0.29791156  0.00530581     1.51700
Co1087     Co  0.96212800  0.25339374  0.54694202     1.51600
Co1088     Co  0.52333528  0.25027199  0.94463704     1.51500
O1089       O  0.48672455  0.24917529  0.99007778    -1.41300
C1090       C  0.57271534  0.20306125  0.99312883     1.10300
C1091       C  0.00129514  0.32755411  0.56179910     1.10400
C1092       C  0.00000384  0.17824762  0.57046669     1.10300
C1093       C  0.57081853  0.30309716  0.98978881     1.10300
O1094       O  0.82125186  0.01650149  0.53756583    -0.79300
O1095       O  0.65615786  0.46753373  0.98781361    -0.79400
O1096       O  0.71263994  0.04605399  0.58218672    -0.79400
O1097       O  0.77805174  0.42472373  0.00131636    -0.79300
O1098       O  0.68017132  0.50275050  0.55358777    -0.79400
O1099       O  0.82674754  0.46627226  0.48384443    -0.79400
O1100       O  0.70099996  0.43102088  0.00546968    -0.79300
O1101       O  0.77008361  0.99729612  0.56898443    -0.79400
C1102       C  0.80648301  0.00320060  0.56678506     1.10300
C1103       C  0.66588530  0.43601250  0.99816238     1.10200
C1104       C  0.68663402  0.02114009  0.58195966     1.10400
C1105       C  0.81373220  0.43032400  0.99601432     1.10200
O1106       O  0.79075393  0.01751708  0.93492998    -0.79300
O1107       O  0.64486874  0.04180721  0.00193365    -0.79400
O1108       O  0.77497632  0.06963281  0.54210388    -0.79400
O1109       O  0.69922051  0.46414022  0.93062775    -0.79300
O1110       O  0.69213485  0.52227170  0.94390951    -0.79400
O1111       O  0.78562063  0.06702771  0.48421184    -0.79400
O1112       O  0.77887908  0.45290176  0.92708267    -0.79300
O1113       O  0.70077683  0.06704110  0.51231086    -0.79400
Co1114     Co  0.80367652  0.01639489  0.48439927     1.51500
Co1115     Co  0.69093492  0.51216591  0.99718914     1.51700
Co1116     Co  0.73535640  0.02818952  0.53888705     1.51600
Co1117     Co  0.73928535  0.44627625  0.96824927     1.51500
O1118       O  0.74696526  0.99843254  0.99742580    -1.41300
C1119       C  0.79349946  0.48179438  0.91287699     1.10300
C1120       C  0.66389382  0.06756062  0.50477578     1.10400
C1121       C  0.78918426  0.08431223  0.51371919     1.10300
C1122       C  0.68691374  0.49582545  0.92202390     1.10300
C1123       C  0.86229645  0.35006843  0.53648279     0.24400
C1124       C  0.88658526  0.34043358  0.50745255    -0.23700
C1125       C  0.90689200  0.37645448  0.99854362     0.19300
C1126       C  0.88123835  0.40525539  0.99535529     0.24300
C1127       C  0.84145880  0.39992561  0.00234659    -0.23700
C1128       C  0.83959538  0.38152988  0.53400314     0.19200
F1129       F  0.81543174  0.38935418  0.56182006    -0.13600
F1130       F  0.86050858  0.32923718  0.56725867    -0.16000
F1131       F  0.89573768  0.43846948  0.98532225    -0.16000
F1132       F  0.94512933  0.38347614  0.99294880    -0.13600
C1133       C  0.82736667  0.13311254  0.54865046     0.24400
C1134       C  0.81413241  0.11818011  0.51506807    -0.23700
C1135       C  0.82929563  0.13306541  0.48233731     0.19300
C1136       C  0.85976111  0.15897904  0.48321879     0.24300
C1137       C  0.87494258  0.17182630  0.51672030    -0.23700
C1138       C  0.85719772  0.15993011  0.54940770     0.19200
F1139       F  0.87071608  0.17215873  0.58234489    -0.13600
F1140       F  0.81319684  0.12035165  0.58091293    -0.16000
F1141       F  0.88429748  0.16073983  0.95068070    -0.16000
F1142       F  0.82506424  0.11183839  0.95105814    -0.13600
C1143       C  0.63568001  0.38039469  0.02790909     0.24400
C1144       C  0.63871027  0.40395637  0.99744924    -0.23700
C1145       C  0.62060940  0.39341387  0.96436724     0.19300
C1146       C  0.60033234  0.35994355  0.96161480     0.24300
C1147       C  0.59668526  0.33636217  0.99226811    -0.23700
C1148       C  0.61411066  0.34743172  0.02563676     0.19200
F1149       F  0.61066483  0.32618156  0.05599571    -0.13600
F1150       F  0.65374530  0.38931012  0.05997130    -0.16000
F1151       F  0.58352063  0.35114316  0.92887083    -0.16000
F1152       F  0.62405808  0.41480279  0.93406394    -0.13600
C1153       C  0.61503909  0.10624382  0.47325403     0.24400
C1154       C  0.64339635  0.10254171  0.50080474    -0.23700
C1155       C  0.64639030  0.13459733  0.03118510     0.19300
C1156       C  0.62396289  0.16639059  0.02794962     0.24300
C1157       C  0.60038892  0.17223627  0.99662625    -0.23700
C1158       C  0.59926444  0.14513166  0.96936343     0.19200
F1159       F  0.57754551  0.14916789  0.93840010    -0.13600
F1160       F  0.60572801  0.07812658  0.45060236    -0.16000
F1161       F  0.62501793  0.19114606  0.05544164    -0.16000
F1162       F  0.67817293  0.12936732  0.55168480    -0.13600
C1163       C  0.86156011  0.03003971  0.84271949     0.24400
C1164       C  0.87879685  0.99920421  0.82771526    -0.23700
C1165       C  0.87294390  0.45633503  0.84626399     0.19300
C1166       C  0.84382004  0.45272598  0.87298040     0.24300
C1167       C  0.81753651  0.48095115  0.87886783    -0.23700
C1168       C  0.83304729  0.02654322  0.86977372     0.19200
F1169       F  0.81918021  0.05757709  0.88426327    -0.13600
F1170       F  0.87442277  0.06399947  0.83327730    -0.16000
F1171       F  0.84343945  0.42285946  0.89506494    -0.16000
F1172       F  0.89890004  0.42927104  0.84308414    -0.13600
C1173       C  0.63305019  0.52719404  0.88649208     0.24400
C1174       C  0.66227394  0.50070786  0.88809056    -0.23700
C1175       C  0.66473082  0.47648165  0.85851459     0.19300
C1176       C  0.63766379  0.47731329  0.82936984     0.24300
C1177       C  0.60690699  0.50221806  0.82888808    -0.23700
C1178       C  0.60585192  0.52800364  0.85726539     0.19200
F1179       F  0.57665695  0.55217993  0.85843781    -0.13600
F1180       F  0.62861029  0.55054203  0.91472259    -0.16000
F1181       F  0.64062881  0.45237323  0.80226716    -0.16000
F1182       F  0.69264480  0.45095829  0.85830151    -0.13600
C1183       C  0.64951155  0.04508470  0.63562858     0.24400
C1184       C  0.66210275  0.01529161  0.61493149    -0.23700
C1185       C  0.64759066  0.48146781  0.62572390     0.19300
C1186       C  0.62402039  0.47535851  0.65638158     0.24300
C1187       C  0.61148828  0.50458493  0.67814744    -0.23700
C1188       C  0.62503683  0.03969164  0.66587279     0.19200
F1189       F  0.61233582  0.06918388  0.68408912    -0.13600
F1190       F  0.65935429  0.07966247  0.62549939    -0.16000
F1191       F  0.61200436  0.44061712  0.66352738    -0.16000
F1192       F  0.65809245  0.45254365  0.60544562    -0.13600
C1193       C  0.82127097  0.50959480  0.63390089     0.24400
C1194       C  0.83268535  0.99810867  0.59907878    -0.23700
C1195       C  0.86970317  0.98395286  0.59390394     0.19300
C1196       C  0.89794417  0.98557336  0.62179619     0.24300
C1197       C  0.89023231  0.00196785  0.65584813    -0.23700
C1198       C  0.85244026  0.01469826  0.66166478     0.19200
F1199       F  0.83951049  0.52253023  0.69583071    -0.13600
F1200       F  0.78588296  0.52375095  0.64012108    -0.16000
F1201       F  0.93374021  0.97295980  0.61431480    -0.16000
F1202       F  0.87910919  0.96957690  0.56108426    -0.13600
C1203       C  0.49738152  0.12971270  0.84123012     0.24400
C1204       C  0.00111903  0.09165704  0.85090423    -0.23700
C1205       C  0.01638921  0.08588663  0.88628793     0.19300
C1206       C  0.01500909  0.11307593  0.91250218     0.24300
C1207       C  0.49400606  0.14999814  0.90462786    -0.23700
C1208       C  0.49582453  0.15792013  0.86680569     0.19200
F1209       F  0.49685927  0.19288712  0.85449797    -0.13600
F1210       F  0.49957462  0.13826984  0.80507308    -0.16000
F1211       F  0.02871339  0.10558172  0.94671211    -0.16000
F1212       F  0.03240582  0.05363934  0.89576578    -0.13600
C1213       C  0.99050045  0.33457907  0.86060767     0.24400
C1214       C  0.48565735  0.34656896  0.90101977    -0.23700
C1215       C  0.48518213  0.38362388  0.91056840     0.19300
C1216       C  0.48583667  0.41023109  0.88342300     0.24300
C1217       C  0.48823802  0.40020957  0.84636632    -0.23700
C1218       C  0.99239742  0.36157288  0.83391521     0.19200
F1219       F  0.99289668  0.35138896  0.79820224    -0.13600
F1220       F  0.98882527  0.29922002  0.84986902    -0.16000
F1221       F  0.48554484  0.44574836  0.89364648    -0.16000
F1222       F  0.48524341  0.39431647  0.94616176    -0.13600
C1223       C  0.50451015  0.36623500  0.65676892     0.24400
C1224       C  0.51620524  0.40259515  0.64988324    -0.23700
C1225       C  0.02712973  0.41157590  0.61412761     0.19300
C1226       C  0.02685376  0.38577154  0.58655692     0.24300
C1227       C  0.00988665  0.35127796  0.59263919    -0.23700
C1228       C  0.50538024  0.34055508  0.62893388     0.19200
F1229       F  0.49173085  0.30625525  0.63582127    -0.13600
F1230       F  0.49070020  0.35565381  0.68992400    -0.16000
F1231       F  0.04228187  0.39480050  0.55358398    -0.16000
F1232       F  0.04258303  0.44514878  0.60688620    -0.13600
C1233       C  0.99354605  0.13411095  0.66258862     0.24400
C1234       C  0.01580807  0.10311732  0.65643862    -0.23700
C1235       C  0.53731559  0.09706588  0.62138829     0.19300
C1236       C  0.53680959  0.12446233  0.59505043     0.24300
C1237       C  0.01183602  0.15768936  0.60301465    -0.23700
C1238       C  0.99162321  0.16142100  0.63586608     0.19200
F1239       F  0.96638430  0.18892308  0.64009292    -0.13600
F1240       F  0.97005308  0.13590162  0.69207613    -0.16000
F1241       F  0.55508198  0.11909593  0.56283248    -0.16000
F1242       F  0.55602035  0.06586903  0.61383865    -0.13600
O1243       O  0.00186584  0.53499064  0.15893749    -0.79300
O1244       O  0.54968397  0.01647804  0.29639264    -0.79400
O1245       O  0.99075760  0.56273461  0.29175719    -0.79400
O1246       O  0.57003638  0.96259270  0.21641913    -0.79300
O1247       O  0.49399754  0.52843522  0.34083916    -0.79400
O1248       O  0.55458029  0.52025135  0.21017960    -0.79400
O1249       O  0.56450242  0.95949876  0.29084622    -0.79300
O1250       O  0.99585681  0.56721021  0.21017898    -0.79400
C1251       C  0.00240616  0.56541177  0.17516866     1.10300
C1252       C  0.57315823  0.99094902  0.30296762     1.10200
C1253       C  0.99080715  0.55775024  0.32717767     1.10400
C1254       C  0.57814141  0.99496532  0.20633175     1.10200
O1255       O  0.02039184  0.96353823  0.16943179    -0.79300
O1256       O  0.94543736  0.98263537  0.30673585    -0.79400
O1257       O  0.92066514  0.52789087  0.20740995    -0.79400
O1258       O  0.49200794  0.91860281  0.28401674    -0.79300
O1259       O  0.50459980  0.95802254  0.32723393    -0.79400
O1260       O  0.94984691  0.48407892  0.18203501    -0.79400
O1261       O  0.49834722  0.92085032  0.20978244    -0.79300
O1262       O  0.91611525  0.52600956  0.28136206    -0.79400
Co1263     Co  0.00032047  0.50404169  0.19932720     1.51500
Co1264     Co  0.49292797  0.00191566  0.29865138     1.51700
Co1265     Co  0.96058395  0.53863959  0.24755984     1.51600
Co1266     Co  0.52803935  0.94346330  0.25028845     1.51500
O1267       O  0.49274408  0.48537681  0.24901362    -1.41300
C1268       C  0.50761141  0.93023573  0.17778873     1.10300
C1269       C  0.91185198  0.49886343  0.30215807     1.10400
C1270       C  0.92019049  0.50275571  0.18403284     1.10300
C1271       C  0.49358986  0.92654685  0.31753479     1.10300
O1272       O  0.94288178  0.68599688  0.99063810    -0.79300
O1273       O  0.50887747  0.82678234  0.45817719    -0.79400
O1274       O  0.92503966  0.79093242  0.03452171    -0.79400
O1275       O  0.49254424  0.71072274  0.42156353    -0.79300
O1276       O  0.94767346  0.80913720  0.48483471    -0.79400
O1277       O  0.00690992  0.66930945  0.46414856    -0.79400
O1278       O  0.49124148  0.78433545  0.41962955    -0.79300
O1279       O  0.92062417  0.71629163  0.03573786    -0.79400
C1280       C  0.91562764  0.69188793  0.01199548     1.10300
C1281       C  0.49579095  0.81752106  0.42708328     1.10200
C1282       C  0.92119795  0.81115203  0.00676335     1.10400
C1283       C  0.49743992  0.67816054  0.43129754     1.10200
O1284       O  0.54973166  0.70703342  0.01654636    -0.79300
O1285       O  0.50596652  0.84046884  0.02970521    -0.79400
O1286       O  0.99741913  0.71029231  0.06893230    -0.79400
O1287       O  0.56609948  0.78866745  0.45674445    -0.79300
O1288       O  0.55471622  0.79119535  0.51473611    -0.79400
O1289       O  0.99835547  0.65955458  0.03547391    -0.79400
O1290       O  0.56600553  0.71390015  0.45895104    -0.79300
O1291       O  0.00313809  0.79135889  0.06446195    -0.79400
Co1292     Co  0.99679395  0.70011199  0.00482585     1.51500
Co1293     Co  0.49874417  0.79828927  0.50330719     1.51700
Co1294     Co  0.96553087  0.75160556  0.04281392     1.51600
Co1295     Co  0.52619285  0.74947386  0.44269358     1.51500
O1296       O  0.48965385  0.74948688  0.48838084    -1.41300
C1297       C  0.57531137  0.70289281  0.49064771     1.10300
C1298       C  0.00527071  0.82646600  0.05969824     1.10400
C1299       C  0.00142986  0.67517108  0.06625032     1.10300
C1300       C  0.57527396  0.80115513  0.48811230     1.10300
O1301       O  0.82063345  0.51184179  0.03639719    -0.79300
O1302       O  0.66022279  0.96491090  0.48803590    -0.79400
O1303       O  0.71231829  0.54623176  0.08131588    -0.79400
O1304       O  0.78441481  0.92955405  0.50320459    -0.79300
O1305       O  0.68067735  0.00211228  0.05539648    -0.79400
O1306       O  0.82753920  0.96532396  0.98510091    -0.79400
O1307       O  0.70657394  0.92977662  0.50562810    -0.79300
O1308       O  0.76850621  0.49608060  0.06818125    -0.79400
C1309       C  0.80513672  0.50031001  0.06604147     1.10300
C1310       C  0.67117513  0.93376329  0.49844354     1.10200
C1311       C  0.68628672  0.52117893  0.08171906     1.10400
C1312       C  0.81977296  0.93636649  0.49734054     1.10200
O1313       O  0.78987438  0.51594786  0.43112316    -0.79300
O1314       O  0.64355200  0.54075101  0.49922025    -0.79400
O1315       O  0.77711967  0.56789062  0.03971004    -0.79400
O1316       O  0.70387094  0.96246521  0.43103850    -0.79300
O1317       O  0.69349489  0.02025049  0.44282645    -0.79400
O1318       O  0.78793823  0.56313818  0.98188832    -0.79400
O1319       O  0.78426181  0.95768515  0.42828766    -0.79300
O1320       O  0.70275122  0.56805209  0.01046739    -0.79400
Co1321     Co  0.80263319  0.51153738  0.98310430     1.51500
Co1322     Co  0.69223554  0.01127495  0.49671615     1.51700
Co1323     Co  0.73519778  0.52797392  0.03764767     1.51600
Co1324     Co  0.74470109  0.94786637  0.46918160     1.51500
O1325       O  0.74623259  0.49902722  0.49478611    -1.41300
C1326       C  0.79691018  0.98752124  0.41419545     1.10300
C1327       C  0.66562746  0.57020814  0.00507751     1.10400
C1328       C  0.79242810  0.58101996  0.01094171     1.10300
C1329       C  0.68994253  0.99317344  0.42135891     1.10300
C1330       C  0.86437901  0.84683782  0.03115337     0.24400
C1331       C  0.89150042  0.84054004  0.00340948    -0.23700
C1332       C  0.90425617  0.87354084  0.48251128     0.19300
C1333       C  0.88105885  0.90435740  0.48126072     0.24300
C1334       C  0.84793211  0.90640422  0.50309268    -0.23700
C1335       C  0.84021155  0.87736929  0.02950299     0.19200
F1336       F  0.81413849  0.88216053  0.05651131    -0.13600
F1337       F  0.86146491  0.82373760  0.06016849    -0.16000
F1338       F  0.89063613  0.93178380  0.45777105    -0.16000
F1339       F  0.93581131  0.87328826  0.46069270    -0.13600
C1340       C  0.83230069  0.63000773  0.04422262     0.24400
C1341       C  0.81897970  0.61405766  0.01117113    -0.23700
C1342       C  0.83497846  0.62739719  0.97804586     0.19300
C1343       C  0.86525328  0.65365398  0.97820237     0.24300
C1344       C  0.87968792  0.66831770  0.01127891    -0.23700
C1345       C  0.86206791  0.65694800  0.04423024     0.19200
F1346       F  0.87561004  0.66993527  0.07685416    -0.13600
F1347       F  0.81809560  0.61823555  0.07681716    -0.16000
F1348       F  0.88251076  0.66400235  0.44791529    -0.16000
F1349       F  0.82313996  0.61504305  0.44658885    -0.13600
C1350       C  0.64150240  0.87715092  0.52754102     0.24400
C1351       C  0.64478217  0.90106689  0.49736512    -0.23700
C1352       C  0.62642025  0.89114269  0.46422382     0.19300
C1353       C  0.60593722  0.85786283  0.46092272     0.24300
C1354       C  0.60195416  0.83389078  0.49117371    -0.23700
C1355       C  0.61944889  0.84440040  0.52478600     0.19200
F1356       F  0.61533490  0.82297304  0.55495664    -0.13600
F1357       F  0.65923326  0.88577655  0.55987481    -0.16000
F1358       F  0.58891594  0.84980580  0.42809198    -0.16000
F1359       F  0.62939489  0.91323395  0.43441355    -0.13600
C1360       C  0.64645489  0.62626124  0.97012827     0.24400
C1361       C  0.64671387  0.60608537  0.00284090    -0.23700
C1362       C  0.64544824  0.63243096  0.52897622     0.19300
C1363       C  0.62438877  0.66484588  0.52574649     0.24300
C1364       C  0.60259217  0.67207155  0.49371188    -0.23700
C1365       C  0.60245560  0.64616911  0.46523180     0.19200
F1366       F  0.58300881  0.65196926  0.43319586    -0.13600
F1367       F  0.66609759  0.61437667  0.94067749    -0.16000
F1368       F  0.62494626  0.68882559  0.55391753    -0.16000
F1369       F  0.62758537  0.60105091  0.06541772    -0.13600
C1370       C  0.85237873  0.52285666  0.33328984     0.24400
C1371       C  0.87616243  0.49325152  0.32514992    -0.23700
C1372       C  0.87643568  0.96349518  0.34706496     0.19300
C1373       C  0.84693333  0.95957687  0.37327010     0.24300
C1374       C  0.82185402  0.98835332  0.38063068    -0.23700
C1375       C  0.82369976  0.51984178  0.36031036     0.19200
F1376       F  0.80313298  0.54982200  0.36834894    -0.13600
F1377       F  0.85856760  0.55573453  0.31697227    -0.16000
F1378       F  0.84482737  0.92839757  0.39330731    -0.16000
F1379       F  0.90143056  0.93578630  0.34302238    -0.13600
C1380       C  0.64352102  0.02695389  0.37820347     0.24400
C1381       C  0.66537329  0.99575054  0.38671127    -0.23700
C1382       C  0.66027145  0.96535907  0.36352974     0.19300
C1383       C  0.63229406  0.96502075  0.33510874     0.24300
C1384       C  0.60783819  0.99498122  0.32869416    -0.23700
C1385       C  0.61476463  0.02639883  0.35010698     0.19200
F1386       F  0.59269712  0.05620093  0.34500001    -0.13600
F1387       F  0.64927492  0.05798812  0.39760694    -0.16000
F1388       F  0.62833359  0.93428768  0.31474085    -0.16000
F1389       F  0.68163443  0.93510864  0.36883557    -0.13600
C1390       C  0.65025916  0.54413394  0.13704777     0.24400
C1391       C  0.66153085  0.51496158  0.11476677    -0.23700
C1392       C  0.64465578  0.97962408  0.12513722     0.19300
C1393       C  0.62025593  0.97304503  0.15510418     0.24300
C1394       C  0.60912571  0.00166680  0.17829894    -0.23700
C1395       C  0.62425848  0.53841471  0.16621257     0.19200
F1396       F  0.61252328  0.56750753  0.18561197    -0.13600
F1397       F  0.66316985  0.57854274  0.12973542    -0.16000
F1398       F  0.60596800  0.93864306  0.16009882    -0.16000
F1399       F  0.65366601  0.95132640  0.10332205    -0.13600
C1400       C  0.82447448  0.01396957  0.13617426     0.24400
C1401       C  0.83063444  0.49540344  0.09902292    -0.23700
C1402       C  0.86517826  0.47608200  0.09631804     0.19300
C1403       C  0.89277713  0.47640434  0.12498041     0.24300
C1404       C  0.88725691  0.49719164  0.15695277    -0.23700
C1405       C  0.85166927  0.51520127  0.16036383     0.19200
F1406       F  0.84693323  0.03439980  0.19482949    -0.13600
F1407       F  0.79080053  0.03164457  0.14137901    -0.16000
F1408       F  0.92596133  0.45779295  0.12031074    -0.16000
F1409       F  0.87275451  0.45749510  0.06529526    -0.13600
C1410       C  0.49408527  0.62723046  0.34101217     0.24400
C1411       C  0.99537329  0.58866130  0.35276554    -0.23700
C1412       C  0.00491469  0.58217431  0.38987819     0.19300
C1413       C  0.00609317  0.61053274  0.41498448     0.24300
C1414       C  0.49375803  0.64851217  0.40424112    -0.23700
C1415       C  0.49447629  0.65580103  0.36625294     0.19200
F1416       F  0.49661752  0.69052509  0.35339444    -0.13600
F1417       F  0.49538586  0.63524119  0.30469732    -0.16000
F1418       F  0.01604027  0.60270543  0.45025390    -0.16000
F1419       F  0.01331464  0.54825243  0.40224140    -0.13600
C1420       C  0.98139380  0.83684933  0.36312769     0.24400
C1421       C  0.48781215  0.84535615  0.39959461    -0.23700
C1422       C  0.49042725  0.88227051  0.40943313     0.19300
C1423       C  0.48867764  0.90893697  0.38273574     0.24300
C1424       C  0.48559233  0.89913659  0.34560083    -0.23700
C1425       C  0.98138650  0.86397295  0.33636249     0.19200
F1426       F  0.96964529  0.85523261  0.30178337    -0.13600
F1427       F  0.96948072  0.80260978  0.35378665    -0.16000
F1428       F  0.49220003  0.94427171  0.39338810    -0.16000
F1429       F  0.49610583  0.89281696  0.44477710    -0.13600
C1430       C  0.50665281  0.86530555  0.15657728     0.24400
C1431       C  0.51119437  0.90281564  0.14885641    -0.23700
C1432       C  0.02309875  0.91360860  0.11129230     0.19300
C1433       C  0.02290611  0.88817092  0.08329097     0.24300
C1434       C  0.01346721  0.85133839  0.09047729    -0.23700
C1435       C  0.50888346  0.83980092  0.12851146     0.19200
F1436       F  0.50247628  0.80403483  0.13648819    -0.13600
F1437       F  0.49940461  0.85316347  0.19107240    -0.16000
F1438       F  0.03086593  0.90006443  0.04884415    -0.16000
F1439       F  0.03144661  0.94893042  0.10272557    -0.13600
C1440       C  0.99484997  0.63176612  0.16010898     0.24400
C1441       C  0.01206917  0.59813395  0.15322784    -0.23700
C1442       C  0.52358060  0.58960180  0.11539405     0.19300
C1443       C  0.52228697  0.61659818  0.08883768     0.24300
C1444       C  0.01095125  0.65235016  0.09847515    -0.23700
C1445       C  0.99472284  0.65900399  0.13293634     0.19200
F1446       F  0.97509168  0.69000886  0.13889326    -0.13600
F1447       F  0.97490195  0.63692120  0.19141253    -0.16000
F1448       F  0.53420615  0.60829926  0.05462040    -0.16000
F1449       F  0.53738245  0.55668995  0.10570658    -0.13600
O1450       O  0.99847925  0.53494777  0.65843214    -0.79300
O1451       O  0.55405442  0.02032346  0.79408615    -0.79400
O1452       O  0.98758172  0.56385706  0.79097205    -0.79400
O1453       O  0.57432370  0.96565783  0.71481267    -0.79300
O1454       O  0.48593384  0.53009642  0.83981971    -0.79400
O1455       O  0.55612681  0.52185198  0.71373132    -0.79400
O1456       O  0.57032868  0.96370559  0.78900931    -0.79300
O1457       O  0.99318691  0.56736092  0.70971631    -0.79400
C1458       C  0.99940577  0.56539612  0.67463642     1.10300
C1459       C  0.57815807  0.99543456  0.80086959     1.10200
C1460       C  0.98695251  0.55938502  0.82635171     1.10400
C1461       C  0.58193110  0.99791592  0.70432487     1.10200
O1462       O  0.01925652  0.96589743  0.66894187    -0.79300
O1463       O  0.94157967  0.98293650  0.80638780    -0.79400
O1464       O  0.91896969  0.52722918  0.70727092    -0.79400
O1465       O  0.49901312  0.92080161  0.78374777    -0.79300
O1466       O  0.51113580  0.96102970  0.82627961    -0.79400
O1467       O  0.94859062  0.48315238  0.68315463    -0.79400
O1468       O  0.50351768  0.92288992  0.70957113    -0.79300
O1469       O  0.91466741  0.52315343  0.78083942    -0.79400
Co1470     Co  0.99890267  0.50471708  0.69925051     1.51500
Co1471     Co  0.49784777  0.00431601  0.79734200     1.51700
Co1472     Co  0.95853569  0.53840576  0.74724126     1.51600
Co1473     Co  0.53360170  0.94625817  0.74928473     1.51500
O1474       O  0.49096510  0.48655644  0.74778094    -1.41300
C1475       C  0.51117707  0.93197499  0.67709995     1.10300
C1476       C  0.91208643  0.49600579  0.80193361     1.10400
C1477       C  0.91893049  0.50184654  0.68436593     1.10300
C1478       C  0.50157498  0.92901405  0.81713098     1.10300
O1479       O  0.94103464  0.68818960  0.49234239    -0.79300
O1480       O  0.51222353  0.82647748  0.95793253    -0.79400
O1481       O  0.92621313  0.79261176  0.53661347    -0.79400
O1482       O  0.49218686  0.71203026  0.91925218    -0.79300
O1483       O  0.94650338  0.80870121  0.98316989    -0.79400
O1484       O  0.00815107  0.66897233  0.96173050    -0.79400
O1485       O  0.49521974  0.78530020  0.91769156    -0.79300
O1486       O  0.92019527  0.71800058  0.53833064    -0.79400
C1487       C  0.91407405  0.69432595  0.51402964     1.10300
C1488       C  0.50012989  0.81822496  0.92624466     1.10200
C1489       C  0.92308989  0.81288111  0.50887801     1.10400
C1490       C  0.49361533  0.67905936  0.92847332     1.10200
O1491       O  0.55445957  0.71172125  0.51721563    -0.79300
O1492       O  0.50184614  0.84134754  0.53008972    -0.79400
O1493       O  0.99763730  0.71128822  0.57048473    -0.79400
O1494       O  0.56901565  0.78656857  0.95584363    -0.79300
O1495       O  0.55688656  0.78922177  0.01358720    -0.79400
O1496       O  0.99553541  0.66032050  0.53728138    -0.79400
O1497       O  0.56502661  0.71042630  0.95905717    -0.79300
O1498       O  0.00392240  0.79238579  0.56576013    -0.79400
Co1499     Co  0.99537154  0.70075901  0.50675313     1.51500
Co1500     Co  0.50119132  0.79805147  0.00261455     1.51700
Co1501     Co  0.96586669  0.75273917  0.54474692     1.51600
Co1502     Co  0.52766192  0.74851719  0.94156713     1.51500
O1503       O  0.49023659  0.75009739  0.98663455    -1.41300
C1504       C  0.57248753  0.69894216  0.99113264     1.10300
C1505       C  0.00595246  0.82743937  0.56050827     1.10400
C1506       C  0.00041306  0.67606364  0.56780054     1.10300
C1507       C  0.57750548  0.79964504  0.98711464     1.10300
O1508       O  0.81948915  0.51721193  0.53712919    -0.79300
O1509       O  0.65735001  0.96793230  0.98926916    -0.79400
O1510       O  0.71071253  0.54803603  0.58260183    -0.79400
O1511       O  0.78081986  0.92838662  0.00369115    -0.79300
O1512       O  0.68272872  0.00047877  0.55315205    -0.79400
O1513       O  0.83013826  0.96703753  0.48346918    -0.79400
O1514       O  0.70308279  0.93176368  0.00617873    -0.79300
O1515       O  0.76813789  0.49923482  0.56891314    -0.79400
C1516       C  0.80463912  0.50418940  0.56643086     1.10300
C1517       C  0.66783125  0.93622324  0.99867745     1.10200
C1518       C  0.68452345  0.52315710  0.58259681     1.10400
C1519       C  0.81625152  0.93425613  0.99745221     1.10200
O1520       O  0.79149254  0.51141134  0.92992134    -0.79300
O1521       O  0.64564423  0.54109632  0.00090388    -0.79400
O1522       O  0.77417733  0.57178263  0.54088282    -0.79400
O1523       O  0.70194723  0.96631980  0.93270907    -0.79300
O1524       O  0.69244519  0.02405828  0.94541701    -0.79400
O1525       O  0.78459694  0.56735414  0.48302010    -0.79400
O1526       O  0.78191521  0.95903105  0.92934899    -0.79300
O1527       O  0.69919374  0.56930214  0.51256398    -0.79400
Co1528     Co  0.80149602  0.51637605  0.48407682     1.51500
Co1529     Co  0.69063521  0.01380499  0.99924542     1.51700
Co1530     Co  0.73360702  0.53039085  0.53898755     1.51600
Co1531     Co  0.74186913  0.94944424  0.97033311     1.51500
O1532       O  0.74684535  0.49579605  0.99362804    -1.41300
C1533       C  0.79522606  0.98921047  0.91652799     1.10300
C1534       C  0.66232278  0.57031846  0.50517223     1.10400
C1535       C  0.78893353  0.58534559  0.51202475     1.10300
C1536       C  0.68924156  0.99750758  0.92323065     1.10300
C1537       C  0.86358261  0.84668169  0.52942628     0.24400
C1538       C  0.89570322  0.84393092  0.50626863    -0.23700
C1539       C  0.89322731  0.86568966  0.97387776     0.19300
C1540       C  0.87005527  0.89664051  0.97291513     0.24300
C1541       C  0.84339567  0.90311020  0.00076383    -0.23700
C1542       C  0.83983728  0.87738979  0.52766089     0.19200
F1543       F  0.80896196  0.87882136  0.55030749    -0.13600
F1544       F  0.85488137  0.81957321  0.55355900    -0.16000
F1545       F  0.87278120  0.91968673  0.94381427    -0.16000
F1546       F  0.91767129  0.86068897  0.94564518    -0.13600
C1547       C  0.82589419  0.63707222  0.54461796     0.24400
C1548       C  0.81521259  0.61870009  0.51202014    -0.23700
C1549       C  0.83366589  0.62996463  0.47930252     0.19300
C1550       C  0.86441597  0.65568885  0.47979718     0.24300
C1551       C  0.87707056  0.67200333  0.51271476    -0.23700
C1552       C  0.85626092  0.66355965  0.54490773     0.19200
F1553       F  0.86689038  0.67915018  0.57727722    -0.13600
F1554       F  0.80815327  0.62841523  0.57658512    -0.16000
F1555       F  0.88100976  0.66425728  0.94585107    -0.16000
F1556       F  0.82230904  0.61418757  0.94521542    -0.13600
C1557       C  0.63876170  0.87908185  0.02695897     0.24400
C1558       C  0.64137508  0.90334244  0.99699585    -0.23700
C1559       C  0.62415914  0.89255307  0.96350864     0.19300
C1560       C  0.60564373  0.85812946  0.95984498     0.24300
C1561       C  0.60245184  0.83383020  0.99004035    -0.23700
C1562       C  0.61882741  0.84522738  0.02379152     0.19200
F1563       F  0.61612412  0.82329673  0.05371339    -0.13600
F1564       F  0.65566423  0.88821450  0.05950754    -0.16000
F1565       F  0.59014649  0.84904976  0.92663946    -0.16000
F1566       F  0.62667623  0.91476135  0.93372575    -0.13600
C1567       C  0.62033310  0.61280587  0.46999504     0.24400
C1568       C  0.64275817  0.60574731  0.50134932    -0.23700
C1569       C  0.62741291  0.61979751  0.03330325     0.19300
C1570       C  0.60679235  0.65233360  0.03070155     0.24300
C1571       C  0.60307803  0.67083838  0.99689206    -0.23700
C1572       C  0.62459662  0.65803410  0.96697008     0.19200
F1573       F  0.62342226  0.67537806  0.93406140    -0.13600
F1574       F  0.61471975  0.58693091  0.44411133    -0.16000
F1575       F  0.58933132  0.66490779  0.06106896    -0.16000
F1576       F  0.66647500  0.62610904  0.55998307    -0.13600
C1577       C  0.84761408  0.51465802  0.82801671     0.24400
C1578       C  0.87633341  0.48812679  0.82434949    -0.23700
C1579       C  0.86527538  0.96456856  0.83951499     0.19300
C1580       C  0.83616836  0.96094913  0.86638256     0.24300
C1581       C  0.82038345  0.99192024  0.88288963    -0.23700
C1582       C  0.81906948  0.51132163  0.85514447     0.19200
F1583       F  0.79370032  0.53872917  0.85918668    -0.13600
F1584       F  0.84844287  0.54516503  0.80688301    -0.16000
F1585       F  0.82478774  0.92704726  0.87731104    -0.16000
F1586       F  0.88081092  0.93408385  0.82550735    -0.13600
C1587       C  0.64557925  0.03225849  0.87794435     0.24400
C1588       C  0.66673045  0.00090943  0.88746811    -0.23700
C1589       C  0.66314582  0.97080384  0.86374339     0.19300
C1590       C  0.63681666  0.97060556  0.83409100     0.24300
C1591       C  0.61222079  0.00025948  0.82708032    -0.23700
C1592       C  0.61807873  0.03172584  0.84870174     0.19200
F1593       F  0.59626662  0.06153676  0.84257026    -0.13600
F1594       F  0.65106553  0.06340569  0.89713984    -0.16000
F1595       F  0.63441670  0.94015732  0.81316590    -0.16000
F1596       F  0.68438318  0.94058915  0.86966924    -0.13600
C1597       C  0.64910764  0.54595288  0.63842683     0.24400
C1598       C  0.66029131  0.51677714  0.61604628    -0.23700
C1599       C  0.65082427  0.98004617  0.62595984     0.19300
C1600       C  0.62718979  0.97453205  0.65654564     0.24300
C1601       C  0.61307949  0.00431169  0.67655980    -0.23700
C1602       C  0.62481315  0.53996856  0.66885927     0.19200
F1603       F  0.61369508  0.56896104  0.68876798    -0.13600
F1604       F  0.66014615  0.58063193  0.62985310    -0.16000
F1605       F  0.61673883  0.93974632  0.66534994    -0.16000
F1606       F  0.66278279  0.95067376  0.60711777    -0.13600
C1607       C  0.82383026  0.01242444  0.63366464     0.24400
C1608       C  0.83083631  0.49778355  0.59852824    -0.23700
C1609       C  0.86791765  0.48372292  0.59305526     0.19300
C1610       C  0.89538298  0.48274352  0.62169921     0.24300
C1611       C  0.88690563  0.49669709  0.65659047    -0.23700
C1612       C  0.84914679  0.50938533  0.66255487     0.19200
F1613       F  0.84347552  0.03042358  0.69394523    -0.13600
F1614       F  0.78836362  0.02654578  0.63954514    -0.16000
F1615       F  0.93131711  0.47040986  0.61433843    -0.16000
F1616       F  0.87812555  0.47195516  0.55940063    -0.13600
C1617       C  0.49451528  0.62822924  0.83874552     0.24400
C1618       C  0.98844137  0.59060663  0.85118572    -0.23700
C1619       C  0.97013822  0.58762779  0.88536041     0.19300
C1620       C  0.97352078  0.61581568  0.91059516     0.24300
C1621       C  0.48665476  0.65060383  0.90083917    -0.23700
C1622       C  0.49623908  0.65684528  0.86388509     0.19200
F1623       F  0.50902637  0.69019035  0.85241997    -0.13600
F1624       F  0.50545668  0.63472175  0.80367723    -0.16000
F1625       F  0.95565483  0.61232224  0.94340811    -0.16000
F1626       F  0.94849578  0.55753258  0.89415438    -0.13600
C1627       C  0.98174889  0.83480794  0.85992811     0.24400
C1628       C  0.49461851  0.84718033  0.89928060    -0.23700
C1629       C  0.50624892  0.88298814  0.90834849     0.19300
C1630       C  0.50727395  0.90970569  0.88174289     0.24300
C1631       C  0.49591203  0.90148346  0.84554981    -0.23700
C1632       C  0.98032452  0.86190824  0.83314650     0.19200
F1633       F  0.97473664  0.85202485  0.79762985    -0.13600
F1634       F  0.97751508  0.79949503  0.84947072    -0.16000
F1635       F  0.52163681  0.94312319  0.89136369    -0.16000
F1636       F  0.51887848  0.89215831  0.94257846    -0.13600
C1637       C  0.49621378  0.86905346  0.65458176     0.24400
C1638       C  0.51189240  0.90425647  0.64831306    -0.23700
C1639       C  0.02449710  0.91477695  0.61135995     0.19300
C1640       C  0.02567977  0.88856103  0.58408530     0.24300
C1641       C  0.01228779  0.85270454  0.59099459    -0.23700
C1642       C  0.49612447  0.84316855  0.62687418     0.19200
F1643       F  0.47804152  0.81043748  0.63267268    -0.13600
F1644       F  0.47961468  0.85993836  0.68699580    -0.16000
F1645       F  0.03907158  0.89861032  0.55058977    -0.16000
F1646       F  0.03700604  0.94920563  0.60332609    -0.13600
C1647       C  0.99509026  0.63226959  0.66094479     0.24400
C1648       C  0.00978463  0.59785523  0.65275449    -0.23700
C1649       C  0.53727948  0.59769956  0.62351999     0.19300
C1650       C  0.53762318  0.62532922  0.59732357     0.24300
C1651       C  0.01074153  0.65315670  0.59948774    -0.23700
C1652       C  0.99590859  0.66003311  0.63441537     0.19200
F1653       F  0.97846132  0.69196603  0.64148442    -0.13600
F1654       F  0.97658593  0.63790920  0.69294606    -0.16000
F1655       F  0.55879906  0.62104173  0.56659845    -0.16000
F1656       F  0.55858810  0.56769449  0.61755296    -0.13600
loop_ 
_geom_bond_atom_site_label_1 
_geom_bond_atom_site_label_2 
_geom_bond_distance 
_geom_bond_site_symmetry_2 
_ccdc_geom_bond_type 
O1            C9   1.268       .  A
O1          Co21   1.861       .  S
O2           C10   1.267       .  A
O2          Co22   2.010   1_455  S
O3           C11   1.304       .  A
O3          Co23   2.099       .  S
O4           C12   1.268       .  A
O4          Co24   2.021       .  S
O5          C839   1.262       .  A
O5         Co436   1.848       .  S
O6          C426   1.264   1_545  A
O6         Co849   1.996       .  S
O7           C10   1.267       .  A
O7          Co24   2.012       .  S
O8            C9   1.303       .  A
O8          Co23   2.095       .  S
C9          C199   1.471       .  S
C10         C142   1.506       .  S
C11         O833   1.263       .  A
C11         C169   1.478       .  S
C12         O420   1.266       .  A
C12         C152   1.508       .  S
O13         C854   1.264       .  A
O13        Co435   1.986       .  S
O14         C441   1.249       .  A
O14        Co850   1.994       .  S
O15          C28   1.258       .  A
O15         Co23   2.028       .  S
O16          C29   1.258       .  A
O16         Co24   1.963   1_655  S
O17          C29   1.262   1_455  A
O17         Co22   1.975   1_455  S
O18          C28   1.243   1_565  A
O18         Co21   1.962   1_565  S
O19          C26   1.258       .  A
O19         Co24   1.957       .  S
O20          C27   1.257       .  A
O20         Co23   2.026       .  S
Co21        O834   1.992       .  S
Co21        O427   1.994   1_545  S
Co21        O853   1.907   1_545  S
Co22        O419   1.861       .  S
Co22        O842   1.986       .  S
Co22        O439   1.911       .  S
Co23        O853   2.260   1_545  S
Co24        O439   2.090   1_455  S
O25        Co849   1.912   1_665  S
O25        Co436   1.909   1_565  S
O25        Co851   2.263   1_565  S
O25        Co438   2.092   1_655  S
C26         O841   1.264       .  A
C26         C189   1.467       .  S
C27         O428   1.247   1_545  A
C27         C129   1.509   1_545  S
C28         C162   1.501       .  S
C29         C182   1.457       .  S
O30          C38   1.250   1_556  A
O30         Co50   1.969   1_556  S
O31          C39   1.263   1_455  A
O31         Co51   1.985   1_455  S
O32          C40   1.257       .  A
O32         Co52   2.046       .  S
O33          C41   1.259       .  A
O33         Co53   1.970   1_655  S
O34         C247   1.238       .  A
O34        Co879   1.949       .  S
O35         C869   1.267       .  A
O35        Co257   1.985       .  S
O36          C39   1.256       .  A
O36         Co53   1.957   1_655  S
O37          C38   1.254       .  A
O37         Co52   1.998       .  S
C38         C102   1.487       .  S
C39         C179   1.457       .  S
C40         O241   1.235   1_554  A
C40          C89   1.498       .  S
C41         O863   1.267   1_655  A
C41         C172   1.479       .  S
O42         C262   1.263   1_554  A
O42        Co878   2.004   1_455  S
O43         C884   1.264       .  A
O43        Co258   1.861       .  S
O44          C57   1.301       .  A
O44         Co52   2.100       .  S
O45          C58   1.270       .  A
O45         Co53   2.044       .  S
O46          C58   1.257       .  A
O46         Co51   1.995   1_455  S
O47          C57   1.266       .  A
O47         Co50   1.860       .  S
O48          C55   1.266       .  A
O48         Co53   2.015       .  S
O49          C56   1.295       .  A
O49         Co52   2.058       .  S
Co50        O242   1.993   1_554  S
Co50        O870   1.996       .  S
Co50       O1089   1.910   1_554  S
Co51        O862   1.953       .  S
Co51        O250   1.870       .  S
Co51         O54   1.894       .  S
Co52       O1089   2.266   1_554  S
Co53         O54   2.101   1_455  S
O54       Co1085   1.915       .  S
O54       Co1087   2.269       .  S
C55         O249   1.265       .  A
C55         C122   1.503       .  S
C56         O871   1.266       .  A
C56         C192   1.452       .  S
C57         C202   1.471       .  S
C58         C112   1.505       .  S
O59          C67   1.278       .  A
O59         Co79   2.031   1_554  S
O60          C68   1.271       .  A
O60         Co80   2.042       .  S
O61          C69   1.268       .  A
O61         Co81   1.905       .  S
O62          C70   1.260       .  A
O62         Co82   1.968       .  S
O63         C483   1.301       .  A
O63        Co287   2.114   1_554  S
O64         C277   1.277       .  A
O64        Co493   2.041       .  S
O65          C68   1.257       .  A
O65         Co82   1.983       .  S
O66          C67   1.270   1_565  A
O66         Co81   1.980   1_565  S
C67         C159   1.488   1_545  S
C68         C109   1.498       .  S
C69         O477   1.305       .  A
C69         C149   1.501       .  S
C70         O271   1.276       .  A
C70          C92   1.492       .  S
O71         C498   1.259   1_545  A
O71        Co286   1.968       .  S
O72         C292   1.269       .  A
O72        Co494   1.905       .  S
O73          C86   1.267       .  A
O73         Co81   2.028       .  S
O74          C87   1.281       .  A
O74         Co82   2.039       .  S
O75          C87   1.272       .  A
O75         Co80   1.989       .  S
O76          C86   1.253   1_556  A
O76         Co79   1.963       .  S
O77          C84   1.278       .  A
O77         Co82   2.063       .  S
O78          C85   1.296       .  A
O78         Co81   2.105       .  S
Co79        O478   2.045   1_545  S
Co79        O278   1.963       .  S
Co79        O290   2.031   1_545  S
Co80        O270   2.113       .  S
Co80        O486   1.910       .  S
Co80        O497   2.031       .  S
Co81        O290   2.045   1_544  S
Co82        O497   2.052       .  S
O83        Co286   2.035   1_565  S
O83        Co494   2.024   1_565  S
O83        Co288   2.048   1_565  S
O83        Co496   2.053       .  S
C84         O485   1.257       .  A
C84         C132   1.506       .  S
C85         O279   1.269   1_554  A
C85         C119   1.487       .  S
C86          C99   1.493       .  S
C87         C139   1.507       .  S
C88          C89   1.410       .  A
C88          C93   1.411       .  A
C88          F95   1.357       .  S
C89         C297   1.415   1_554  A
C90          C91   1.397       .  A
C90         C296   1.416       .  A
C90          F97   1.355       .  S
C91          C92   1.403       .  A
C91          F96   1.358       .  S
C92         C300   1.413       .  A
C93         C299   1.413       .  A
C93          F94   1.358       .  S
C98          C99   1.408       .  A
C98         C103   1.405       .  A
C98         F105   1.357       .  S
C99         C100   1.415   1_554  A
C100        C101   1.398       .  A
C100        F314   1.358       .  S
C101        C102   1.405   1_556  A
C101        F313   1.359       .  S
C102        C103   1.411       .  A
C103        F104   1.358       .  S
F106        C308   1.358       .  S
F107        C307   1.358       .  S
C108        C109   1.412       .  A
C108        C113   1.412       .  A
C108        F115   1.357       .  S
C109        C110   1.406       .  A
C110        C111   1.408       .  A
C110        F117   1.358       .  S
C111        C112   1.416       .  A
C111        F116   1.357       .  S
C112        C113   1.409       .  A
C113        F114   1.357       .  S
C118        C119   1.397   1_556  A
C118        C330   1.394       .  A
C118        F125   1.352       .  S
C119        C327   1.411       .  A
C120        C121   1.418       .  A
C120        C326   1.414       .  A
C120        F334   1.357       .  S
C121        C122   1.410       .  A
C121        F126   1.357       .  S
C122        C123   1.413       .  A
C123        C325   1.399       .  A
C123        F124   1.354       .  S
F127        C327   1.357       .  S
C128        C129   1.411   1_545  A
C128        C133   1.409       .  A
C128        F135   1.358       .  S
C129        C544   1.414       .  A
C130        C131   1.414       .  A
C130        C543   1.412       .  A
C130        F137   1.358       .  S
C131        C132   1.413       .  A
C131        F136   1.357       .  S
C132        C547   1.413       .  A
C133        C546   1.414   1_545  A
C133        F134   1.358       .  S
C138        C139   1.414       .  A
C138        C143   1.411       .  A
C138        F145   1.356       .  S
C139        C140   1.410       .  A
C140        C141   1.406       .  A
C140        F147   1.358       .  S
C141        C142   1.413       .  A
C141        F146   1.358       .  S
C142        C143   1.410       .  A
C143        F144   1.356       .  S
C148        C149   1.415       .  A
C148        C153   1.412       .  A
C148        F155   1.357       .  S
C149        C564   1.404   1_545  A
C150        C151   1.406       .  A
C150        C563   1.405       .  A
C150        F157   1.358       .  S
C151        C152   1.419       .  A
C151        F156   1.358       .  S
C152        C567   1.410       .  A
C153        C566   1.409       .  A
C153        F154   1.357       .  S
C158        C573   1.412       .  A
C158        C577   1.413       .  A
C158        F165   1.357       .  S
C159        C160   1.403       .  A
C159        C572   1.409   1_565  A
C160        C161   1.402       .  A
C160        F167   1.357       .  S
C161        C162   1.416   1_565  A
C161        F166   1.358       .  S
C162        C163   1.411       .  A
C163        C572   1.409       .  A
C163        F578   1.357       .  S
F164        C577   1.357       .  S
C168        C173   1.400       .  A
C168        C997   1.406       .  A
C168        F175   1.358       .  S
C169        C170   1.412       .  A
C169        C996   1.407       .  A
C170        C171   1.387       .  A
C170        F177   1.359       .  S
C171       C1000   1.405       .  A
C171        F176   1.359       .  S
C172        C173   1.412       .  A
C172        C999   1.404       .  A
C173        F174   1.358       .  S
C178        C183   1.387       .  A
C178       C1007   1.405       .  A
C178        F185   1.358       .  S
C179        C180   1.404       .  A
C179       C1006   1.406       .  A
C180        C181   1.386       .  A
C180        F187   1.358       .  S
C181        C182   1.404       .  A
C181        F186   1.359       .  S
C182       C1011   1.404       .  A
C183       C1010   1.405       .  A
C183        F184   1.358       .  S
C188        C189   1.408       .  A
C188        C193   1.389       .  A
C188        F195   1.358   1_455  S
C189       C1018   1.408       .  A
C190        C191   1.384       .  A
C190       C1017   1.406       .  A
C190        F197   1.358       .  S
C191        C192   1.402       .  A
C191        F196   1.358       .  S
C192       C1021   1.402       .  A
C193       C1020   1.402       .  A
C193        F194   1.358   1_455  S
C198        C199   1.406       .  A
C198        C203   1.400       .  A
C198        F205   1.358       .  S
C199       C1028   1.406       .  A
C200        C201   1.390       .  A
C200       C1027   1.407       .  A
C200        F207   1.359       .  S
C201       C1030   1.404       .  A
C201        F206   1.358       .  S
C202        C203   1.406       .  A
C202       C1029   1.405       .  A
C203        F204   1.358       .  S
O208        C216   1.268       .  A
O208       Co228   1.860       .  S
O209        C217   1.269       .  A
O209       Co229   2.012   1_455  S
O210        C218   1.305       .  A
O210       Co230   2.104       .  S
O211        C219   1.264       .  A
O211       Co231   2.003       .  S
O212       C1046   1.267       .  A
O212       Co643   1.859       .  S
O213        C633   1.263   1_545  A
O213      Co1056   1.989       .  S
O214        C217   1.270       .  A
O214       Co231   2.020       .  S
O215        C216   1.302       .  A
O215       Co230   2.093       .  S
C216        C406   1.470       .  S
C217        C349   1.509       .  S
C218       O1040   1.262       .  A
C218        C376   1.479       .  S
C219        O627   1.266       .  A
C219        C359   1.501       .  S
O220       C1061   1.266       .  A
O220       Co642   1.994       .  S
O221        C648   1.246       .  A
O221      Co1057   1.991       .  S
O222        C235   1.259       .  A
O222       Co230   2.028       .  S
O223        C236   1.255       .  A
O223       Co231   1.954       .  S
O224        C236   1.260       .  A
O224       Co229   1.970   1_455  S
O225        C235   1.243   1_565  A
O225       Co228   1.964   1_565  S
O226        C233   1.259       .  A
O226       Co231   1.957       .  S
O227        C234   1.256       .  A
O227       Co230   2.019       .  S
Co228      O1041   1.995       .  S
Co228       O634   1.995   1_545  S
Co228      O1060   1.907   1_545  S
Co229       O626   1.862       .  S
Co229      O1049   1.985       .  S
Co229       O646   1.914       .  S
Co230      O1060   2.259   1_545  S
Co231       O646   2.084   1_455  S
O232      Co1056   1.925   1_665  S
O232       Co643   1.912   1_565  S
O232      Co1058   2.249   1_565  S
O232       Co645   2.088   1_655  S
C233       O1048   1.263       .  A
C233        C396   1.461       .  S
C234        O635   1.247   1_545  A
C234        C336   1.506   1_545  S
C235        C369   1.500   1_545  S
C236        C389   1.456   1_455  S
O237        C245   1.248       .  A
O237       Co257   1.973       .  S
O238        C246   1.261   1_455  A
O238       Co258   1.973   1_556  S
O239        C247   1.258       .  A
O239       Co259   2.043       .  S
O240        C248   1.261   1_655  A
O240       Co260   1.970   1_655  S
O241      Co1086   1.946   1_556  S
O242       C1076   1.268       .  A
O243        C246   1.257       .  A
O243       Co260   1.961   1_655  S
O244        C245   1.256       .  A
O244       Co259   2.015       .  S
C245        C309   1.496       .  S
C246        C386   1.457       .  S
C247        C296   1.501       .  S
C248       O1070   1.265       .  A
C248        C379   1.476   1_455  S
O249      Co1085   2.008   1_455  S
O250       C1091   1.267   1_655  A
O251        C264   1.301       .  A
O251       Co259   2.095       .  S
O252        C265   1.268       .  A
O252       Co260   2.036       .  S
O253        C265   1.257   1_554  A
O253       Co258   1.990       .  S
O254        C264   1.267       .  A
O254       Co257   1.856       .  S
O255        C262   1.264       .  A
O255       Co260   2.000       .  S
O256        C263   1.297       .  A
O256       Co259   2.074       .  S
Co257      O1077   2.003       .  S
Co257       O882   1.905       .  S
Co258      O1069   1.952   1_454  S
Co258       O261   1.898   1_454  S
Co259       O882   2.267       .  S
Co260       O261   2.106   1_455  S
O261       Co878   1.915   1_556  S
O261       Co880   2.265   1_556  S
C262        C329   1.496       .  S
C263       O1078   1.263       .  A
C263        C399   1.462       .  S
C264        C409   1.467       .  S
C265        C319   1.503       .  S
O266        C274   1.279       .  A
O266       Co286   2.031       .  S
O267        C275   1.268       .  A
O267       Co287   2.043       .  S
O268        C276   1.269       .  A
O268       Co288   1.907       .  S
O269        C277   1.255   1_554  A
O269       Co289   1.960   1_554  S
O270        C690   1.301       .  A
O271       Co700   2.037       .  S
O272        C275   1.250   1_554  A
O272       Co289   1.975   1_554  S
O273        C274   1.272   1_565  A
O273       Co288   1.986   1_565  S
C274        C366   1.492   1_545  S
C275        C316   1.492       .  S
C276        O684   1.304       .  A
C276        C356   1.498       .  S
C277        C299   1.485   1_556  S
O278        C705   1.256   1_545  A
O279       Co701   1.905       .  S
O280        C293   1.268       .  A
O280       Co288   2.037       .  S
O281        C294   1.284       .  A
O281       Co289   2.052       .  S
O282        C294   1.271       .  A
O282       Co287   1.989       .  S
O283        C293   1.254       .  A
O283       Co286   1.968       .  S
O284        C291   1.278       .  A
O284       Co289   2.065       .  S
O285        C292   1.299       .  A
O285       Co288   2.115       .  S
Co286       O685   2.041   1_545  S
Co287       O693   1.911   1_556  S
Co287       O704   2.037       .  S
Co289       O704   2.052       .  S
O290       Co701   2.028   1_565  S
O290       Co703   2.049       .  S
C291        O692   1.256       .  A
C291        C339   1.509       .  S
C292        C326   1.497       .  S
C293        C306   1.503       .  S
C294        C346   1.510       .  S
C295        C296   1.409       .  A
C295        C300   1.410       .  A
C295        F302   1.357       .  S
C297        C298   1.394       .  A
C297        F304   1.354       .  S
C298        C299   1.399   1_556  A
C298        F303   1.357       .  S
C300        F301   1.358       .  S
C305        C306   1.411       .  A
C305        C310   1.410       .  A
C305        F312   1.357       .  S
C306        C307   1.416       .  A
C307        C308   1.402       .  A
C308        C309   1.407       .  A
C309        C310   1.412       .  A
C310        F311   1.357       .  S
C315        C316   1.411   1_554  A
C315        C320   1.411       .  A
C315        F322   1.357       .  S
C316        C317   1.403       .  A
C317        C318   1.406       .  A
C317        F324   1.358       .  S
C318        C319   1.416       .  A
C318        F323   1.357       .  S
C319        C320   1.410   1_556  A
C320        F321   1.357       .  S
C325        C326   1.402       .  A
C325        F332   1.356       .  S
C327        C328   1.414       .  A
C328        C329   1.410   1_554  A
C328        F333   1.357       .  S
C329        C330   1.413       .  A
C330        F331   1.357       .  S
C335        C336   1.410   1_545  A
C335        C340   1.407       .  A
C335        F342   1.358       .  S
C336        C751   1.413       .  A
C337        C750   1.413       .  A
C337        C338   1.415       .  A
C337        F344   1.358       .  S
C338        C339   1.413       .  A
C338        F343   1.357       .  S
C339        C754   1.414       .  A
C340        C753   1.415   1_545  A
C340        F341   1.358       .  S
C345        C346   1.415       .  A
C345        C350   1.413       .  A
C345        F352   1.357       .  S
C346        C347   1.409       .  A
C347        C348   1.410       .  A
C347        F354   1.357       .  S
C348        C349   1.414       .  A
C348        F353   1.358       .  S
C349        C350   1.411       .  A
C350        F351   1.357       .  S
C355        C356   1.412       .  A
C355        C360   1.412       .  A
C355        F362   1.358       .  S
C356        C771   1.404   1_545  A
C357        C770   1.404       .  A
C357        C358   1.401       .  A
C357        F364   1.358       .  S
C358        C359   1.417       .  A
C358        F363   1.358       .  S
C359        C774   1.407       .  A
C360        C773   1.412       .  A
C360        F361   1.358       .  S
C365        C780   1.409       .  A
C365        C784   1.407       .  A
C365        F372   1.357       .  S
C366        C779   1.410   1_565  A
C366        C367   1.405       .  A
C367        C368   1.402       .  A
C367        F374   1.357       .  S
C368        C369   1.414       .  A
C368        F373   1.358       .  S
C369        C370   1.411   1_565  A
C370        C779   1.410       .  A
C370        F785   1.357       .  S
F371        C784   1.357       .  S
C375       C1204   1.404   1_655  A
C375        C380   1.396       .  A
C375        F382   1.358       .  S
C376       C1203   1.407       .  A
C376        C377   1.413       .  A
C377        C378   1.385       .  A
C377        F384   1.358       .  S
C378       C1207   1.401       .  A
C378        F383   1.359       .  S
C379       C1206   1.409   1_655  A
C379        C380   1.410       .  A
C380        F381   1.358       .  S
C385       C1214   1.405       .  A
C385        C390   1.388       .  A
C385        F392   1.358       .  S
C386       C1213   1.405       .  A
C386        C387   1.406       .  A
C387        C388   1.379       .  A
C387        F394   1.356       .  S
C388        C389   1.403       .  A
C388        F393   1.359       .  S
C389       C1218   1.407       .  A
C390       C1217   1.405       .  A
C390        F391   1.358       .  S
C395        C396   1.407   1_655  A
C395        C400   1.388       .  A
C395        F402   1.358       .  S
C396       C1225   1.408       .  A
C397       C1224   1.407       .  A
C397        C398   1.387       .  A
C397        F404   1.358       .  S
C398        C399   1.405       .  A
C398        F403   1.359       .  S
C399       C1228   1.404       .  A
C400       C1227   1.402   1_655  A
C400        F401   1.359       .  S
C405        C406   1.407       .  A
C405        C410   1.400       .  A
C405        F412   1.358       .  S
C406       C1235   1.406       .  A
C407       C1234   1.405       .  A
C407        C408   1.390       .  A
C407        F414   1.357       .  S
C408       C1237   1.403       .  A
C408        F413   1.358       .  S
C409       C1236   1.404       .  A
C409        C410   1.405       .  A
C410        F411   1.358       .  S
O415        C423   1.267       .  A
O415       Co435   1.854       .  S
O416        C424   1.271   1_545  A
O416       Co436   2.015   1_455  S
O417        C425   1.308       .  A
O417       Co437   2.110       .  S
O418        C426   1.269       .  A
O418       Co438   2.024       .  S
O419       C1253   1.266       .  A
O420      Co1263   2.002       .  S
O421        C424   1.266       .  A
O421       Co438   2.004       .  S
O422        C423   1.304       .  A
O422       Co437   2.100       .  S
C423        C613   1.478       .  S
C424        C556   1.511       .  S
C425       O1247   1.262       .  A
C425        C583   1.480       .  S
C426        C566   1.503   1_565  S
O427       C1268   1.266       .  A
O428      Co1264   1.987   1_565  S
O429        C442   1.260       .  A
O429       Co437   2.037       .  S
O430        C443   1.261   1_655  A
O430       Co438   1.971   1_655  S
O431        C443   1.259       .  A
O431       Co436   1.961   1_465  S
O432        C442   1.243       .  A
O432       Co435   1.968       .  S
O433        C440   1.260       .  A
O433       Co438   1.964       .  S
O434        C441   1.256       .  A
O434       Co437   2.010       .  S
Co435      O1248   2.000       .  S
Co435      O1267   1.901       .  S
Co436      O1256   1.984   1_545  S
Co437      O1267   2.262       .  S
O439      Co1263   1.913   1_655  S
O439      Co1265   2.263       .  S
C440       O1255   1.267       .  A
C440        C603   1.475       .  S
C441        C543   1.503       .  S
C442        C576   1.502       .  S
C443        C596   1.460   1_455  S
O444        C452   1.249   1_556  A
O444       Co464   1.970   1_556  S
O445        C453   1.259       .  A
O445       Co465   1.966   1_455  S
O446        C454   1.258       .  A
O446       Co466   2.037       .  S
O447        C455   1.262       .  A
O447       Co467   1.976   1_655  S
O448        C661   1.237       .  A
O448      Co1293   1.952       .  S
O449       C1283   1.268       .  A
O449       Co671   1.998       .  S
O450        C453   1.259   1_655  A
O450       Co467   1.969   1_655  S
O451        C452   1.259       .  A
O451       Co466   2.020       .  S
C452        C516   1.496       .  S
C453        C593   1.460   1_455  S
C454        O655   1.236   1_554  A
C454        C503   1.487       .  S
C455       O1277   1.265   1_655  A
C455        C586   1.481       .  S
O456        C676   1.264   1_554  A
O456      Co1292   1.996   1_455  S
O457       C1298   1.265       .  A
O457       Co672   1.865   1_455  S
O458        C471   1.303       .  A
O458       Co466   2.102       .  S
O459        C472   1.270       .  A
O459       Co467   2.040       .  S
O460        C472   1.258       .  A
O460       Co465   1.992   1_455  S
O461        C471   1.266       .  A
O461       Co464   1.860       .  S
O462        C469   1.264       .  A
O462       Co467   2.005       .  S
O463        C470   1.302       .  A
O463       Co466   2.086       .  S
Co464       O656   1.998   1_554  S
Co464      O1284   1.996       .  S
Co464      O1503   1.896   1_554  S
Co465      O1276   1.951       .  S
Co465       O664   1.861   1_655  S
Co465       O468   1.886       .  S
Co466      O1503   2.279   1_554  S
Co467       O468   2.109   1_455  S
O468      Co1499   1.901       .  S
O468      Co1501   2.277       .  S
C469        O663   1.265       .  A
C469        C536   1.502       .  S
C470       O1285   1.263       .  A
C470        C606   1.470       .  S
C471        C616   1.477       .  S
C472        C526   1.509       .  S
O473        C481   1.279       .  A
O473       Co493   2.031   1_554  S
O474        C482   1.272       .  A
O474       Co494   2.046   1_565  S
O475        C483   1.270       .  A
O475       Co495   1.918       .  S
O476        C484   1.258       .  A
O476       Co496   1.967       .  S
O477       Co701   2.129   1_554  S
O478        C691   1.278       .  A
O479        C482   1.256       .  A
O479       Co496   1.985       .  S
O480        C481   1.272       .  A
O480       Co495   1.990       .  S
C481        C573   1.499       .  S
C482        C523   1.499       .  S
C483        C563   1.501       .  S
C484        O685   1.276       .  A
C484        C506   1.488       .  S
O485       Co700   1.961       .  S
O486        C706   1.270       .  A
O487        C500   1.270       .  A
O487       Co495   2.039       .  S
O488        C501   1.281       .  A
O488       Co496   2.037       .  S
O489        C501   1.272   1_545  A
O489       Co494   1.992       .  S
O490        C500   1.255   1_556  A
O490       Co493   1.971       .  S
O491        C498   1.279       .  A
O491       Co496   2.066       .  S
O492        C499   1.294       .  A
O492       Co495   2.101       .  S
Co493       O692   1.961       .  S
Co493       O704   2.033       .  S
Co494       O684   2.124       .  S
Co495       O704   2.043   1_554  S
O497       Co700   2.032       .  S
O497       Co702   2.041       .  S
C498        C546   1.509       .  S
C499        O693   1.269       .  A
C499        C533   1.482       .  S
C500        C513   1.504       .  S
C501        C553   1.511       .  S
C502        C503   1.400       .  A
C502        C507   1.406       .  A
C502        F509   1.357       .  S
C503        C711   1.413   1_554  A
C504        C710   1.415       .  A
C504        C505   1.398       .  A
C504        F511   1.354       .  S
C505        C506   1.401       .  A
C505        F510   1.357       .  S
C506        C714   1.411       .  A
C507        C713   1.420       .  A
C507        F508   1.357       .  S
C512        C513   1.411       .  A
C512        C517   1.410       .  A
C512        F519   1.357       .  S
C513        C514   1.416   1_554  A
C514        C515   1.403       .  A
C514        F728   1.358       .  S
C515        C516   1.406   1_556  A
C515        F727   1.358       .  S
C516        C517   1.412       .  A
C517        F518   1.358       .  S
F520        C722   1.358       .  S
F521        C721   1.358       .  S
C522        C523   1.410       .  A
C522        C527   1.414       .  A
C522        F529   1.356       .  S
C523        C524   1.405       .  A
C524        C525   1.406       .  A
C524        F531   1.356       .  S
C525        C526   1.415       .  A
C525        F530   1.358       .  S
C526        C527   1.413       .  A
C527        F528   1.357       .  S
C532        C533   1.402   1_556  A
C532        C744   1.406       .  A
C532        F539   1.358       .  S
C533        C741   1.403       .  A
C534        C740   1.406       .  A
C534        C535   1.408       .  A
C534        F748   1.356       .  S
C535        C536   1.410       .  A
C535        F540   1.357       .  S
C536        C537   1.418       .  A
C537        C739   1.403       .  A
C537        F538   1.358       .  S
F541        C741   1.355       .  S
C542        C543   1.409       .  A
C542        C547   1.404       .  A
C542        F549   1.358       .  S
C544        C545   1.412       .  A
C544        F551   1.358       .  S
C545        C546   1.410       .  A
C545        F550   1.356       .  S
C547        F548   1.358       .  S
C552        C553   1.415   1_545  A
C552        C557   1.415       .  A
C552        F559   1.355       .  S
C553        C554   1.410       .  A
C554        C555   1.403       .  A
C554        F561   1.358       .  S
C555        C556   1.417       .  A
C555        F560   1.358       .  S
C556        C557   1.411   1_565  A
C557        F558   1.357       .  S
C562        C563   1.412       .  A
C562        C567   1.412       .  A
C562        F569   1.356       .  S
C564        C565   1.404       .  A
C564        F571   1.356       .  S
C565        C566   1.416   1_565  A
C565        F570   1.358       .  S
C567        F568   1.357       .  S
C572        F579   1.358       .  S
C573        C574   1.408       .  A
C574        C575   1.404       .  A
C574        F581   1.358       .  S
C575        C576   1.413       .  A
C575        F580   1.358       .  S
C576        C577   1.410       .  A
C582       C1411   1.406       .  A
C582        C587   1.399       .  A
C582        F589   1.358       .  S
C583       C1410   1.405       .  A
C583        C584   1.415       .  A
C584        C585   1.388       .  A
C584        F591   1.359       .  S
C585       C1414   1.403       .  A
C585        F590   1.359       .  S
C586       C1413   1.408   1_655  A
C586        C587   1.411       .  A
C587        F588   1.358       .  S
C592       C1421   1.406       .  A
C592        C597   1.388       .  A
C592        F599   1.358       .  S
C593       C1420   1.406       .  A
C593        C594   1.407   1_655  A
C594        C595   1.378       .  A
C594        F601   1.360       .  S
C595        C596   1.406   1_455  A
C595        F600   1.359       .  S
C596       C1425   1.405       .  A
C597       C1424   1.405       .  A
C597        F598   1.358       .  S
C602        C603   1.411       .  A
C602        C607   1.396       .  A
C602        F609   1.358       .  S
C603       C1432   1.406       .  A
C604       C1431   1.405       .  A
C604        C605   1.386       .  A
C604        F611   1.359       .  S
C605        C606   1.409       .  A
C605        F610   1.359       .  S
C606       C1435   1.405       .  A
C607       C1434   1.405       .  A
C607        F608   1.358   1_455  S
C612        C613   1.409       .  A
C612        C617   1.407       .  A
C612        F619   1.358       .  S
C613       C1442   1.407       .  A
C614       C1441   1.405       .  A
C614        C615   1.387       .  A
C614        F621   1.359       .  S
C615       C1444   1.407       .  A
C615        F620   1.357       .  S
C616       C1443   1.406       .  A
C616        C617   1.409       .  A
C617        F618   1.358       .  S
O622        C630   1.268       .  A
O622       Co642   1.863       .  S
O623        C631   1.268   1_545  A
O623       Co643   2.016   1_455  S
O624        C632   1.303       .  A
O624       Co644   2.091       .  S
O625        C633   1.269       .  A
O625       Co645   2.029       .  S
O626       C1460   1.265       .  A
O627      Co1470   2.009   1_455  S
O628        C631   1.266       .  A
O628       Co645   2.005       .  S
O629        C630   1.302       .  A
O629       Co644   2.099       .  S
C630        C820   1.476       .  S
C631        C763   1.508       .  S
C632       O1454   1.266       .  A
C632        C790   1.476       .  S
C633        C773   1.506   1_565  S
O634       C1475   1.266       .  A
O635      Co1471   1.987   1_565  S
O636        C649   1.258       .  A
O636       Co644   2.020       .  S
O637        C650   1.261       .  A
O637       Co645   1.974   1_655  S
O638        C650   1.262   1_455  A
O638       Co643   1.970   1_465  S
O639        C649   1.244       .  A
O639       Co642   1.968       .  S
O640        C647   1.259   1_655  A
O640       Co645   1.956   1_655  S
O641        C648   1.256       .  A
O641       Co644   2.017       .  S
Co642      O1455   1.994       .  S
Co642      O1474   1.924       .  S
Co643      O1463   1.992   1_545  S
Co644      O1474   2.254       .  S
O646      Co1470   1.907       .  S
O646      Co1472   2.259       .  S
C647       O1462   1.268       .  A
C647        C810   1.471       .  S
C648        C750   1.503       .  S
C649        C783   1.500       .  S
C650        C803   1.465       .  S
O651        C659   1.251       .  A
O651       Co671   1.975       .  S
O652        C660   1.263   1_455  A
O652       Co672   1.982   1_456  S
O653        C661   1.257       .  A
O653       Co673   2.040       .  S
O654        C662   1.259       .  A
O654       Co674   1.962   1_655  S
O655      Co1500   1.944   1_556  S
O656       C1490   1.267       .  A
O657        C660   1.259       .  A
O657       Co674   1.966   1_655  S
O658        C659   1.257       .  A
O658       Co673   2.009       .  S
C659        C723   1.495       .  S
C660        C800   1.465       .  S
C661        C710   1.499       .  S
C662       O1484   1.267   1_655  A
C662        C793   1.461       .  S
O663      Co1499   2.004   1_455  S
O664       C1505   1.263       .  A
O665        C678   1.303       .  A
O665       Co673   2.103       .  S
O666        C679   1.268       .  A
O666       Co674   2.028       .  S
O667        C679   1.259   1_554  A
O667       Co672   1.992   1_455  S
O668        C678   1.266       .  A
O668       Co671   1.856       .  S
O669        C676   1.265       .  A
O669       Co674   2.010       .  S
O670        C677   1.299       .  A
O670       Co673   2.072       .  S
Co671      O1491   1.995       .  S
Co671      O1296   1.913       .  S
Co672      O1483   1.957   1_554  S
Co672       O675   1.897   1_554  S
Co673      O1296   2.266       .  S
Co674       O675   2.110   1_455  S
O675      Co1292   1.911   1_556  S
O675      Co1294   2.275   1_556  S
C676        C743   1.501       .  S
C677       O1492   1.265       .  A
C677        C813   1.459       .  S
C678        C823   1.471       .  S
C679        C733   1.504       .  S
O680        C688   1.279       .  A
O680       Co700   2.030       .  S
O681        C689   1.270       .  A
O681       Co701   2.038   1_565  S
O682        C690   1.269       .  A
O682       Co702   1.910       .  S
O683        C691   1.257   1_554  A
O683       Co703   1.956   1_554  S
O686        C689   1.255   1_554  A
O686       Co703   1.982   1_554  S
O687        C688   1.270       .  A
O687       Co702   1.982       .  S
C688        C780   1.491       .  S
C689        C730   1.492       .  S
C690        C770   1.497       .  S
C691        C713   1.497   1_556  S
O694        C707   1.269       .  A
O694       Co702   2.041       .  S
O695        C708   1.280       .  A
O695       Co703   2.031       .  S
O696        C708   1.273   1_545  A
O696       Co701   1.999       .  S
O697        C707   1.254       .  A
O697       Co700   1.968       .  S
O698        C705   1.278       .  A
O698       Co703   2.066       .  S
O699        C706   1.296       .  A
O699       Co702   2.104       .  S
C705        C753   1.508       .  S
C706        C740   1.484       .  S
C707        C720   1.504       .  S
C708        C760   1.512       .  S
C709        C710   1.410       .  A
C709        C714   1.409       .  A
C709        F716   1.357       .  S
C711        C712   1.399       .  A
C711        F718   1.358       .  S
C712        C713   1.406   1_556  A
C712        F717   1.358       .  S
C714        F715   1.358       .  S
C719        C720   1.411       .  A
C719        C724   1.411       .  A
C719        F726   1.357       .  S
C720        C721   1.416       .  A
C721        C722   1.401       .  A
C722        C723   1.405       .  A
C723        C724   1.412       .  A
C724        F725   1.358       .  S
C729        C730   1.410   1_554  A
C729        C734   1.412       .  A
C729        F736   1.356       .  S
C730        C731   1.403       .  A
C731        C732   1.404       .  A
C731        F738   1.357       .  S
C732        C733   1.416       .  A
C732        F737   1.358       .  S
C733        C734   1.411   1_556  A
C734        F735   1.357       .  S
C739        C740   1.400       .  A
C739        F746   1.357       .  S
C741        C742   1.404       .  A
C742        C743   1.409   1_554  A
C742        F747   1.357       .  S
C743        C744   1.418       .  A
C744        F745   1.358       .  S
C749        C750   1.408       .  A
C749        C754   1.403       .  A
C749        F756   1.358       .  S
C751        C752   1.413       .  A
C751        F758   1.358       .  S
C752        C753   1.411       .  A
C752        F757   1.357       .  S
C754        F755   1.358       .  S
C759        C760   1.414   1_545  A
C759        C764   1.414       .  A
C759        F766   1.353       .  S
C760        C761   1.410       .  A
C761        C762   1.401       .  A
C761        F768   1.358       .  S
C762        C763   1.415       .  A
C762        F767   1.358       .  S
C763        C764   1.411   1_565  A
C764        F765   1.357       .  S
C769        C770   1.414       .  A
C769        C774   1.412       .  A
C769        F776   1.357       .  S
C771        C772   1.404       .  A
C771        F778   1.357       .  S
C772        C773   1.416   1_565  A
C772        F777   1.357       .  S
C774        F775   1.357       .  S
C779        F786   1.357       .  S
C780        C781   1.406       .  A
C781        C782   1.404       .  A
C781        F788   1.358       .  S
C782        C783   1.415       .  A
C782        F787   1.358       .  S
C783        C784   1.410       .  A
C789       C1618   1.403   1_455  A
C789        C794   1.396       .  A
C789        F796   1.358       .  S
C790       C1617   1.406       .  A
C790        C791   1.411       .  A
C791        C792   1.391       .  A
C791        F798   1.358       .  S
C792       C1621   1.400       .  A
C792        F797   1.359       .  S
C793       C1620   1.400       .  A
C793        C794   1.407   1_655  A
C794        F795   1.358       .  S
C799       C1628   1.407       .  A
C799        C804   1.391       .  A
C799        F806   1.358       .  S
C800       C1627   1.408       .  A
C800        C801   1.406       .  A
C801        C802   1.383       .  A
C801        F808   1.359       .  S
C802        C803   1.406       .  A
C802        F807   1.359       .  S
C803       C1632   1.406       .  A
C804       C1631   1.406       .  A
C804        F805   1.358       .  S
C809        C810   1.410   1_655  A
C809        C814   1.391       .  A
C809        F816   1.358       .  S
C810       C1639   1.407       .  A
C811       C1638   1.407       .  A
C811        C812   1.389       .  A
C811        F818   1.358       .  S
C812        C813   1.404       .  A
C812        F817   1.359       .  S
C813       C1642   1.402       .  A
C814       C1641   1.401   1_655  A
C814        F815   1.358       .  S
C819        C820   1.408       .  A
C819        C824   1.401       .  A
C819        F826   1.358       .  S
C820       C1649   1.407       .  A
C821       C1648   1.406       .  A
C821        C822   1.385       .  A
C821        F828   1.360       .  S
C822       C1651   1.406       .  A
C822        F827   1.358       .  S
C823       C1650   1.405       .  A
C823        C824   1.406       .  A
C824        F825   1.358       .  S
O829        C837   1.268       .  A
O829       Co849   1.859       .  S
O830        C838   1.272       .  A
O830       Co850   2.022       .  S
O831        C839   1.306       .  A
O831       Co851   2.105       .  S
O832        C840   1.269       .  A
O832       Co852   2.022       .  S
O833      Co1264   1.848       .  S
O834       C1254   1.263   1_545  A
O835        C838   1.265       .  A
O835       Co852   2.000       .  S
O836        C837   1.304       .  A
O836       Co851   2.100   1_455  S
C837       C1027   1.474       .  S
C838        C970   1.511       .  S
C839        C997   1.481       .  S
C840       O1248   1.265       .  A
C840        C980   1.504       .  S
O841      Co1263   1.992       .  S
O842       C1269   1.247       .  A
O843        C856   1.260       .  A
O843       Co851   2.028       .  S
O844        C857   1.259       .  A
O844       Co852   1.964       .  S
O845        C857   1.258       .  A
O845       Co850   1.963       .  S
O846        C856   1.246   1_565  A
O846       Co849   1.968   1_665  S
O847        C854   1.256       .  A
O847       Co852   1.952       .  S
O848        C855   1.256       .  A
O848       Co851   2.025       .  S
Co849      O1255   1.999   1_545  S
Co850      O1247   1.839       .  S
Co850      O1267   1.909       .  S
Co852      O1267   2.085       .  S
O853      Co1264   1.912   1_565  S
O853      Co1266   2.092       .  S
C854       C1017   1.460       .  S
C855       O1256   1.246   1_545  A
C855        C957   1.509   1_545  S
C856        C990   1.506   1_545  S
C857       C1010   1.457       .  S
O858        C866   1.252   1_556  A
O858       Co878   1.980   1_556  S
O859        C867   1.259       .  A
O859       Co879   1.971       .  S
O860        C868   1.257       .  A
O860       Co880   2.038       .  S
O861        C869   1.261       .  A
O861       Co881   1.973       .  S
O862       C1075   1.237       .  A
O863      Co1085   1.992   1_455  S
O864        C867   1.257       .  A
O864       Co881   1.960       .  S
O865        C866   1.256       .  A
O865       Co880   2.009       .  S
C866        C930   1.496       .  S
C867       C1007   1.457       .  S
C868       O1069   1.238   1_554  A
C868        C917   1.489       .  S
C869       C1000   1.475       .  S
O870       C1090   1.263   1_554  A
O871      Co1086   1.865       .  S
O872        C885   1.301       .  A
O872       Co880   2.097   1_455  S
O873        C886   1.271       .  A
O873       Co881   2.037       .  S
O874        C886   1.260       .  A
O874       Co879   1.989       .  S
O875        C885   1.267   1_655  A
O875       Co878   1.860       .  S
O876        C883   1.264       .  A
O876       Co881   2.005       .  S
O877        C884   1.298       .  A
O877       Co880   2.073   1_455  S
Co878      O1070   1.993   1_654  S
Co879      O1078   1.861       .  S
Co879       O882   1.898       .  S
Co881       O882   2.104       .  S
C883       O1077   1.264       .  A
C883        C950   1.491       .  S
C884       C1020   1.460       .  S
C885       C1030   1.470       .  S
C886        C940   1.508       .  S
O887        C895   1.278       .  A
O887       Co907   2.028   1_554  S
O888        C896   1.271       .  A
O888       Co908   2.050       .  S
O889        C897   1.270       .  A
O889       Co909   1.908       .  S
O890        C898   1.256       .  A
O890       Co910   1.962       .  S
O891       C1311   1.300       .  A
O891      Co1115   2.108   1_554  S
O892       C1105   1.279       .  A
O892      Co1321   2.038       .  S
O893        C896   1.251       .  A
O893       Co910   1.976       .  S
O894        C895   1.272   1_565  A
O894       Co909   1.991   1_565  S
C895        C987   1.494   1_545  S
C896        C937   1.496       .  S
C897       O1305   1.305       .  A
C897        C977   1.502       .  S
C898       O1099   1.279       .  A
C898        C920   1.490       .  S
O899       C1326   1.258   1_545  A
O899      Co1114   1.969       .  S
O900       C1120   1.268       .  A
O900      Co1322   1.897       .  S
O901        C914   1.269       .  A
O901       Co909   2.045       .  S
O902        C915   1.283       .  A
O902       Co910   2.045       .  S
O903        C915   1.271       .  A
O903       Co908   1.993       .  S
O904        C914   1.252   1_556  A
O904       Co907   1.964       .  S
O905        C912   1.277       .  A
O905       Co910   2.061       .  S
O906        C913   1.300       .  A
O906       Co909   2.117       .  S
Co907      O1306   2.056   1_545  S
Co907      O1106   1.958       .  S
Co907      O1118   2.033   1_545  S
Co908      O1098   2.127       .  S
Co908      O1314   1.904       .  S
Co908      O1325   2.031       .  S
Co909      O1118   2.063   1_544  S
Co910      O1325   2.047       .  S
O911      Co1114   2.036   1_565  S
O911      Co1322   2.026   1_565  S
O911      Co1116   2.042   1_565  S
O911      Co1324   2.050       .  S
C912       O1313   1.259       .  A
C912        C960   1.509       .  S
C913       O1107   1.269       .  A
C913        C947   1.498       .  S
C914        C927   1.504       .  S
C915        C967   1.514       .  S
C916        C917   1.402       .  A
C916        C921   1.411       .  A
C916        F923   1.357       .  S
C917       C1125   1.409   1_554  A
C918       C1124   1.413       .  A
C918        C919   1.398       .  A
C918        F925   1.355       .  S
C919        C920   1.400       .  A
C919        F924   1.355       .  S
C920       C1128   1.412       .  A
C921       C1127   1.421       .  A
C921        F922   1.357       .  S
C926        C927   1.410       .  A
C926        C931   1.411       .  A
C926        F933   1.357       .  S
C927        C928   1.417   1_554  A
C928        C929   1.402       .  A
C928       F1142   1.358       .  S
C929        C930   1.404   1_556  A
C929       F1141   1.358       .  S
C930        C931   1.414       .  A
C931        F932   1.358       .  S
F934       C1136   1.357       .  S
F935       C1135   1.358       .  S
C936        C937   1.411       .  A
C936        C941   1.413       .  A
C936        F943   1.356       .  S
C937        C938   1.405       .  A
C938        C939   1.407       .  A
C938        F945   1.358       .  S
C939        C940   1.417       .  A
C939        F944   1.358       .  S
C940        C941   1.412       .  A
C941        F942   1.358       .  S
C946        C947   1.402   1_556  A
C946       C1158   1.396       .  A
C946        F953   1.353       .  S
C947       C1155   1.414       .  A
C948       C1154   1.412       .  A
C948        C949   1.413       .  A
C948       F1162   1.357       .  S
C949        C950   1.407       .  A
C949        F954   1.357       .  S
C950        C951   1.411       .  A
C951       C1153   1.392       .  A
C951        F952   1.354       .  S
F955       C1155   1.357       .  S
C956        C957   1.413   1_545  A
C956        C961   1.411       .  A
C956        F963   1.358       .  S
C957       C1372   1.414       .  A
C958       C1371   1.413       .  A
C958        C959   1.412       .  A
C958        F965   1.358       .  S
C959        C960   1.411       .  A
C959        F964   1.355       .  S
C960       C1375   1.413       .  A
C961       C1374   1.413   1_545  A
C961        F962   1.358       .  S
C966        C967   1.416       .  A
C966        C971   1.415       .  A
C966        F973   1.352       .  S
C967        C968   1.408       .  A
C968        C969   1.404       .  A
C968        F975   1.358       .  S
C969        C970   1.417       .  A
C969        F974   1.358       .  S
C970        C971   1.410       .  A
C971        F972   1.357       .  S
C976        C977   1.414       .  A
C976        C981   1.411       .  A
C976        F983   1.357       .  S
C977       C1392   1.406   1_545  A
C978       C1391   1.405       .  A
C978        C979   1.403       .  A
C978        F985   1.357       .  S
C979        C980   1.416       .  A
C979        F984   1.358       .  S
C980       C1395   1.410       .  A
C981       C1394   1.409       .  A
C981        F982   1.358       .  S
C986       C1401   1.410       .  A
C986       C1405   1.412       .  A
C986        F993   1.358       .  S
C987       C1400   1.410   1_565  A
C987        C988   1.405       .  A
C988        C989   1.403       .  A
C988        F995   1.358       .  S
C989        C990   1.415       .  A
C989        F994   1.358       .  S
C990        C991   1.413   1_565  A
C991       C1400   1.412       .  A
C991       F1406   1.358       .  S
F992       C1405   1.358       .  S
C996       C1001   1.399       .  A
C996       F1003   1.358       .  S
C997        C998   1.413       .  A
C998        C999   1.388       .  A
C998       F1005   1.359   1_655  S
C999       F1004   1.359       .  S
C1000      C1001   1.410       .  A
C1001      F1002   1.358       .  S
C1006      C1011   1.388       .  A
C1006      F1013   1.359       .  S
C1007      C1008   1.406       .  A
C1008      C1009   1.380       .  A
C1008      F1015   1.359       .  S
C1009      C1010   1.406       .  A
C1009      F1014   1.359       .  S
C1011      F1012   1.358   1_655  S
C1016      C1017   1.408       .  A
C1016      C1021   1.389       .  A
C1016      F1023   1.359       .  S
C1018      C1019   1.389       .  A
C1018      F1025   1.359       .  S
C1019      C1020   1.406       .  A
C1019      F1024   1.359       .  S
C1021      F1022   1.359       .  S
C1026      C1027   1.408   1_655  A
C1026      C1031   1.401       .  A
C1026      F1033   1.358       .  S
C1028      C1029   1.391       .  A
C1028      F1035   1.358       .  S
C1029      F1034   1.358       .  S
C1030      C1031   1.406   1_455  A
C1031      F1032   1.358       .  S
O1036      C1044   1.267       .  A
O1036     Co1056   1.859       .  S
O1037      C1045   1.270       .  A
O1037     Co1057   2.011       .  S
O1038      C1046   1.301       .  A
O1038     Co1058   2.085       .  S
O1039      C1047   1.269       .  A
O1039     Co1059   2.026       .  S
O1040     Co1471   1.843       .  S
O1041      C1461   1.263   1_545  A
O1042      C1045   1.266       .  A
O1042     Co1059   2.002       .  S
O1043      C1044   1.299   1_655  A
O1043     Co1058   2.091       .  S
C1044      C1234   1.468       .  S
C1045      C1177   1.502       .  S
C1046      C1204   1.467   1_655  S
C1047      O1455   1.265       .  A
C1047      C1187   1.508       .  S
O1048     Co1470   1.984   1_455  S
O1049      C1476   1.247       .  A
O1050      C1063   1.259       .  A
O1050     Co1058   2.023       .  S
O1051      C1064   1.262       .  A
O1051     Co1059   1.971       .  S
O1052      C1064   1.261       .  A
O1052     Co1057   1.974       .  S
O1053      C1063   1.245   1_565  A
O1053     Co1056   1.960   1_665  S
O1054      C1061   1.260       .  A
O1054     Co1059   1.959       .  S
O1055      C1062   1.255       .  A
O1055     Co1058   2.021       .  S
Co1056     O1462   2.003   1_545  S
Co1057     O1454   1.860       .  S
Co1057     O1474   1.921       .  S
Co1059     O1474   2.087       .  S
O1060     Co1471   1.905   1_565  S
O1060     Co1473   2.087       .  S
C1061      C1224   1.468       .  S
C1062      O1463   1.246   1_545  A
C1062      C1164   1.504   1_545  S
C1063      C1197   1.500       .  S
C1064      C1217   1.465       .  S
O1065      C1073   1.252       .  A
O1065     Co1085   1.981       .  S
O1066      C1074   1.263       .  A
O1066     Co1086   1.985   1_556  S
O1067      C1075   1.258       .  A
O1067     Co1087   2.045       .  S
O1068      C1076   1.258       .  A
O1068     Co1088   1.965       .  S
O1071      C1074   1.260       .  A
O1071     Co1088   1.968       .  S
O1072      C1073   1.254       .  A
O1072     Co1087   2.001       .  S
C1073      C1137   1.488       .  S
C1074      C1214   1.465       .  S
C1075      C1124   1.500       .  S
C1076      C1207   1.473       .  S
O1079      C1092   1.300   1_655  A
O1079     Co1087   2.090       .  S
O1080      C1093   1.266       .  A
O1080     Co1088   2.020       .  S
O1081      C1093   1.259   1_554  A
O1081     Co1086   1.992       .  S
O1082      C1092   1.268   1_655  A
O1082     Co1085   1.861       .  S
O1083      C1090   1.269       .  A
O1083     Co1088   2.021       .  S
O1084      C1091   1.294       .  A
O1084     Co1087   2.054   1_455  S
Co1086     O1089   1.888   1_554  S
Co1088     O1089   2.097       .  S
C1090      C1157   1.500       .  S
C1091      C1227   1.450       .  S
C1092      C1237   1.463       .  S
C1093      C1147   1.498       .  S
O1094      C1102   1.278       .  A
O1094     Co1114   2.025       .  S
O1095      C1103   1.267       .  A
O1095     Co1115   2.036       .  S
O1096      C1104   1.266       .  A
O1096     Co1116   1.900       .  S
O1097      C1105   1.259   1_554  A
O1097     Co1117   1.964   1_554  S
O1098      C1518   1.306       .  A
O1099     Co1528   2.053       .  S
O1100      C1103   1.252   1_554  A
O1100     Co1117   1.976   1_554  S
O1101      C1102   1.271   1_565  A
O1101     Co1116   1.984   1_565  S
C1102      C1194   1.488   1_545  S
C1103      C1144   1.487       .  S
C1104      O1512   1.304       .  A
C1104      C1184   1.492       .  S
C1105      C1127   1.500   1_556  S
O1106      C1533   1.254   1_545  A
O1107     Co1529   1.905   1_554  S
O1108      C1121   1.265       .  A
O1108     Co1116   2.024       .  S
O1109      C1122   1.284       .  A
O1109     Co1117   2.049       .  S
O1110      C1122   1.269       .  A
O1110     Co1115   1.979       .  S
O1111      C1121   1.256       .  A
O1111     Co1114   1.974       .  S
O1112      C1119   1.275       .  A
O1112     Co1117   2.053       .  S
O1113      C1120   1.296       .  A
O1113     Co1116   2.104       .  S
Co1114     O1513   2.048   1_545  S
Co1115     O1521   1.914   1_556  S
Co1115     O1532   2.036       .  S
Co1117     O1532   2.055       .  S
O1118     Co1529   2.034   1_565  S
O1118     Co1531   2.061       .  S
C1119      O1520   1.260       .  A
C1119      C1167   1.502       .  S
C1120      C1154   1.485       .  S
C1121      C1134   1.496       .  S
C1122      C1174   1.504       .  S
C1123      C1124   1.410       .  A
C1123      C1128   1.411       .  A
C1123      F1130   1.357       .  S
C1125      C1126   1.397       .  A
C1125      F1132   1.354       .  S
C1126      C1127   1.406   1_556  A
C1126      F1131   1.358       .  S
C1128      F1129   1.358       .  S
C1133      C1134   1.411       .  A
C1133      C1138   1.407       .  A
C1133      F1140   1.358       .  S
C1134      C1135   1.413       .  A
C1135      C1136   1.401       .  A
C1136      C1137   1.403       .  A
C1137      C1138   1.411       .  A
C1138      F1139   1.358       .  S
C1143      C1144   1.409   1_554  A
C1143      C1148   1.408       .  A
C1143      F1150   1.356       .  S
C1144      C1145   1.404       .  A
C1145      C1146   1.403       .  A
C1145      F1152   1.358       .  S
C1146      C1147   1.417       .  A
C1146      F1151   1.358       .  S
C1147      C1148   1.408   1_556  A
C1148      F1149   1.357       .  S
C1153      C1154   1.400       .  A
C1153      F1160   1.356       .  S
C1155      C1156   1.418       .  A
C1156      C1157   1.411   1_554  A
C1156      F1161   1.357       .  S
C1157      C1158   1.411       .  A
C1158      F1159   1.356       .  S
C1163      C1164   1.407   1_545  A
C1163      C1168   1.405       .  A
C1163      F1170   1.359       .  S
C1164      C1579   1.412       .  A
C1165      C1578   1.416       .  A
C1165      C1166   1.412       .  A
C1165      F1172   1.358       .  S
C1166      C1167   1.411       .  A
C1166      F1171   1.358       .  S
C1167      C1582   1.409       .  A
C1168      C1581   1.418   1_545  A
C1168      F1169   1.358       .  S
C1173      C1174   1.416       .  A
C1173      C1178   1.410       .  A
C1173      F1180   1.357       .  S
C1174      C1175   1.407       .  A
C1175      C1176   1.405       .  A
C1175      F1182   1.358       .  S
C1176      C1177   1.415       .  A
C1176      F1181   1.358       .  S
C1177      C1178   1.409       .  A
C1178      F1179   1.357       .  S
C1183      C1184   1.413       .  A
C1183      C1188   1.409       .  A
C1183      F1190   1.358       .  S
C1184      C1599   1.402   1_545  A
C1185      C1598   1.404       .  A
C1185      C1186   1.406       .  A
C1185      F1192   1.357       .  S
C1186      C1187   1.417       .  A
C1186      F1191   1.358       .  S
C1187      C1602   1.410       .  A
C1188      C1601   1.409       .  A
C1188      F1189   1.358       .  S
C1193      C1608   1.410       .  A
C1193      C1612   1.410       .  A
C1193      F1200   1.358       .  S
C1194      C1607   1.410   1_565  A
C1194      C1195   1.403       .  A
C1195      C1196   1.399       .  A
C1195      F1202   1.358       .  S
C1196      C1197   1.415   1_565  A
C1196      F1201   1.358       .  S
C1197      C1198   1.412       .  A
C1198      C1607   1.411       .  A
C1198      F1613   1.357       .  S
F1199      C1612   1.358       .  S
C1203      C1208   1.401       .  A
C1203      F1210   1.358       .  S
C1204      C1205   1.405       .  A
C1205      C1206   1.389       .  A
C1205      F1212   1.359       .  S
C1206      F1211   1.358       .  S
C1207      C1208   1.411       .  A
C1208      F1209   1.358       .  S
C1213      C1218   1.388       .  A
C1213      F1220   1.358       .  S
C1214      C1215   1.407       .  A
C1215      C1216   1.388       .  A
C1215      F1222   1.359       .  S
C1216      C1217   1.408       .  A
C1216      F1221   1.359       .  S
C1218      F1219   1.359       .  S
C1223      C1224   1.409       .  A
C1223      C1228   1.391       .  A
C1223      F1230   1.358       .  S
C1225      C1226   1.386       .  A
C1225      F1232   1.358       .  S
C1226      C1227   1.401       .  A
C1226      F1231   1.359       .  S
C1228      F1229   1.358       .  S
C1233      C1234   1.407   1_655  A
C1233      C1238   1.398       .  A
C1233      F1240   1.358       .  S
C1235      C1236   1.388       .  A
C1235      F1242   1.358       .  S
C1236      F1241   1.359       .  S
C1237      C1238   1.404   1_455  A
C1238      F1239   1.358       .  S
O1243      C1251   1.267       .  A
O1243     Co1263   1.858       .  S
O1244      C1252   1.271   1_545  A
O1244     Co1264   2.017       .  S
O1245      C1253   1.305       .  A
O1245     Co1265   2.096       .  S
O1246      C1254   1.269       .  A
O1246     Co1266   2.027       .  S
O1249      C1252   1.267       .  A
O1249     Co1266   2.010       .  S
O1250      C1251   1.303   1_655  A
O1250     Co1265   2.100       .  S
C1251      C1441   1.475       .  S
C1252      C1384   1.514       .  S
C1253      C1411   1.478       .  S
C1254      C1394   1.504   1_565  S
O1257      C1270   1.260       .  A
O1257     Co1265   2.030       .  S
O1258      C1271   1.259       .  A
O1258     Co1266   1.967       .  S
O1259      C1271   1.260       .  A
O1259     Co1264   1.962   1_565  S
O1260      C1270   1.246       .  A
O1260     Co1263   1.968   1_655  S
O1261      C1268   1.259       .  A
O1261     Co1266   1.963       .  S
O1262      C1269   1.257       .  A
O1262     Co1265   2.024       .  S
C1268      C1431   1.471       .  S
C1269      C1371   1.507       .  S
C1270      C1404   1.505       .  S
C1271      C1424   1.457       .  S
O1272      C1280   1.252   1_556  A
O1272     Co1292   1.979   1_556  S
O1273      C1281   1.261       .  A
O1273     Co1293   1.978       .  S
O1274      C1282   1.260       .  A
O1274     Co1294   2.049       .  S
O1275      C1283   1.260       .  A
O1275     Co1295   1.969       .  S
O1276      C1489   1.238       .  A
O1277     Co1499   1.992   1_455  S
O1278      C1281   1.256       .  A
O1278     Co1295   1.956       .  S
O1279      C1280   1.257       .  A
O1279     Co1294   2.011       .  S
C1280      C1344   1.494       .  S
C1281      C1421   1.457       .  S
C1282      O1483   1.239   1_554  A
C1282      C1331   1.507       .  S
C1283      C1414   1.476       .  S
O1284      C1504   1.263   1_554  A
O1285     Co1500   1.853       .  S
O1286      C1299   1.305   1_655  A
O1286     Co1294   2.109       .  S
O1287      C1300   1.269       .  A
O1287     Co1295   2.030       .  S
O1288      C1300   1.258       .  A
O1288     Co1293   1.989       .  S
O1289      C1299   1.266   1_655  A
O1289     Co1292   1.860       .  S
O1290      C1297   1.263       .  A
O1290     Co1295   1.997       .  S
O1291      C1298   1.301       .  A
O1291     Co1294   2.081   1_455  S
Co1292     O1484   1.998   1_654  S
Co1293     O1492   1.864       .  S
Co1293     O1296   1.894       .  S
Co1295     O1296   2.103       .  S
C1297      O1491   1.263       .  A
C1297      C1364   1.490       .  S
C1298      C1434   1.472       .  S
C1299      C1444   1.478       .  S
C1300      C1354   1.500       .  S
O1301      C1309   1.279       .  A
O1301     Co1321   2.034   1_554  S
O1302      C1310   1.267       .  A
O1302     Co1322   2.031   1_565  S
O1303      C1311   1.270       .  A
O1303     Co1323   1.919       .  S
O1304      C1312   1.258       .  A
O1304     Co1324   1.962       .  S
O1305     Co1529   2.123   1_554  S
O1306      C1519   1.279       .  A
O1307      C1310   1.255       .  A
O1307     Co1324   1.984       .  S
O1308      C1309   1.271       .  A
O1308     Co1323   1.985       .  S
C1309      C1401   1.493       .  S
C1310      C1351   1.490       .  S
C1311      C1391   1.500       .  S
C1312      O1513   1.278       .  A
C1312      C1334   1.495       .  S
O1313     Co1528   1.969       .  S
O1314      C1534   1.269       .  A
O1315      C1328   1.270       .  A
O1315     Co1323   2.035       .  S
O1316      C1329   1.282       .  A
O1316     Co1324   2.043       .  S
O1317      C1329   1.272   1_545  A
O1317     Co1322   1.994       .  S
O1318      C1328   1.256   1_556  A
O1318     Co1321   1.973       .  S
O1319      C1326   1.278       .  A
O1319     Co1324   2.060       .  S
O1320      C1327   1.295       .  A
O1320     Co1323   2.104       .  S
Co1321     O1520   1.974       .  S
Co1321     O1532   2.035       .  S
Co1322     O1512   2.124       .  S
Co1323     O1532   2.049   1_554  S
O1325     Co1528   2.035       .  S
O1325     Co1530   2.045       .  S
C1326      C1374   1.506       .  S
C1327      O1521   1.267       .  A
C1327      C1361   1.484       .  S
C1328      C1341   1.503       .  S
C1329      C1381   1.516       .  S
C1330      C1331   1.410       .  A
C1330      C1335   1.412       .  A
C1330      F1337   1.357       .  S
C1331      C1539   1.417   1_554  A
C1332      C1538   1.416       .  A
C1332      C1333   1.400       .  A
C1332      F1339   1.356       .  S
C1333      C1334   1.404       .  A
C1333      F1338   1.357       .  S
C1334      C1542   1.415       .  A
C1335      C1541   1.412       .  A
C1335      F1336   1.357       .  S
C1340      C1341   1.410       .  A
C1340      C1345   1.409       .  A
C1340      F1347   1.358       .  S
C1341      C1342   1.416   1_554  A
C1342      C1343   1.404       .  A
C1342      F1556   1.358       .  S
C1343      C1344   1.405   1_556  A
C1343      F1555   1.358       .  S
C1344      C1345   1.412       .  A
C1345      F1346   1.358       .  S
F1348      C1550   1.358       .  S
F1349      C1549   1.358       .  S
C1350      C1351   1.409       .  A
C1350      C1355   1.411       .  A
C1350      F1357   1.357       .  S
C1351      C1352   1.403       .  A
C1352      C1353   1.402       .  A
C1352      F1359   1.358       .  S
C1353      C1354   1.415       .  A
C1353      F1358   1.358       .  S
C1354      C1355   1.411       .  A
C1355      F1356   1.357       .  S
C1360      C1361   1.402   1_556  A
C1360      C1572   1.406       .  A
C1360      F1367   1.357       .  S
C1361      C1569   1.405       .  A
C1362      C1568   1.411       .  A
C1362      C1363   1.412       .  A
C1362      F1576   1.357       .  S
C1363      C1364   1.408       .  A
C1363      F1368   1.357       .  S
C1364      C1365   1.413       .  A
C1365      C1567   1.393       .  A
C1365      F1366   1.358       .  S
F1369      C1569   1.356       .  S
C1370      C1371   1.411       .  A
C1370      C1375   1.408       .  A
C1370      F1377   1.358       .  S
C1372      C1373   1.409       .  A
C1372      F1379   1.358       .  S
C1373      C1374   1.409       .  A
C1373      F1378   1.357       .  S
C1375      F1376   1.358       .  S
C1380      C1381   1.416   1_545  A
C1380      C1385   1.416       .  A
C1380      F1387   1.354       .  S
C1381      C1382   1.411       .  A
C1382      C1383   1.406       .  A
C1382      F1389   1.358       .  S
C1383      C1384   1.417       .  A
C1383      F1388   1.358       .  S
C1384      C1385   1.411   1_565  A
C1385      F1386   1.357       .  S
C1390      C1391   1.413       .  A
C1390      C1395   1.412       .  A
C1390      F1397   1.357       .  S
C1392      C1393   1.405       .  A
C1392      F1399   1.357       .  S
C1393      C1394   1.416   1_565  A
C1393      F1398   1.358       .  S
C1395      F1396   1.357       .  S
C1400      F1407   1.358       .  S
C1401      C1402   1.404       .  A
C1402      C1403   1.404       .  A
C1402      F1409   1.357       .  S
C1403      C1404   1.415       .  A
C1403      F1408   1.358       .  S
C1404      C1405   1.413       .  A
C1410      C1415   1.400       .  A
C1410      F1417   1.357       .  S
C1411      C1412   1.410   1_655  A
C1412      C1413   1.390       .  A
C1412      F1419   1.359       .  S
C1413      F1418   1.359       .  S
C1414      C1415   1.411       .  A
C1415      F1416   1.358       .  S
C1420      C1425   1.392       .  A
C1420      F1427   1.358       .  S
C1421      C1422   1.405       .  A
C1422      C1423   1.380       .  A
C1422      F1429   1.359       .  S
C1423      C1424   1.406       .  A
C1423      F1428   1.359       .  S
C1425      F1426   1.358       .  S
C1430      C1431   1.411       .  A
C1430      C1435   1.396       .  A
C1430      F1437   1.358       .  S
C1432      C1433   1.388       .  A
C1432      F1439   1.358       .  S
C1433      C1434   1.408       .  A
C1433      F1438   1.358       .  S
C1435      F1436   1.358       .  S
C1440      C1441   1.407   1_655  A
C1440      C1445   1.405       .  A
C1440      F1447   1.358       .  S
C1442      C1443   1.384       .  A
C1442      F1449   1.359       .  S
C1443      F1448   1.358       .  S
C1444      C1445   1.408   1_455  A
C1445      F1446   1.357       .  S
O1450      C1458   1.267       .  A
O1450     Co1470   1.854       .  S
O1451      C1459   1.270   1_545  A
O1451     Co1471   2.015       .  S
O1452      C1460   1.301       .  A
O1452     Co1472   2.086       .  S
O1453      C1461   1.266       .  A
O1453     Co1473   2.013       .  S
O1456      C1459   1.267       .  A
O1456     Co1473   2.009       .  S
O1457      C1458   1.304       .  A
O1457     Co1472   2.099       .  S
C1458      C1648   1.472   1_655  S
C1459      C1591   1.511   1_565  S
C1460      C1618   1.465       .  S
C1461      C1601   1.500   1_565  S
O1464      C1477   1.255       .  A
O1464     Co1472   2.020       .  S
O1465      C1478   1.258       .  A
O1465     Co1473   1.963       .  S
O1466      C1478   1.260       .  A
O1466     Co1471   1.963   1_565  S
O1467      C1477   1.245       .  A
O1467     Co1470   1.972       .  S
O1468      C1475   1.260       .  A
O1468     Co1473   1.960       .  S
O1469      C1476   1.259       .  A
O1469     Co1472   2.026       .  S
C1475      C1638   1.468       .  S
C1476      C1578   1.509       .  S
C1477      C1611   1.497       .  S
C1478      C1631   1.457       .  S
O1479      C1487   1.253       .  A
O1479     Co1499   1.982       .  S
O1480      C1488   1.260       .  A
O1480     Co1500   1.969   1_556  S
O1481      C1489   1.258       .  A
O1481     Co1501   2.043       .  S
O1482      C1490   1.257       .  A
O1482     Co1502   1.965       .  S
O1485      C1488   1.258       .  A
O1485     Co1502   1.965       .  S
O1486      C1487   1.258       .  A
O1486     Co1501   2.015       .  S
C1487      C1551   1.500       .  S
C1488      C1628   1.459       .  S
C1489      C1538   1.498       .  S
C1490      C1621   1.470       .  S
O1493      C1506   1.304   1_655  A
O1493     Co1501   2.105       .  S
O1494      C1507   1.269       .  A
O1494     Co1502   2.037       .  S
O1495      C1507   1.260   1_554  A
O1495     Co1500   1.987       .  S
O1496      C1506   1.265   1_655  A
O1496     Co1499   1.852       .  S
O1497      C1504   1.267       .  A
O1497     Co1502   2.017       .  S
O1498      C1505   1.301       .  A
O1498     Co1501   2.079   1_455  S
Co1500     O1503   1.887   1_554  S
Co1502     O1503   2.106       .  S
C1504      C1571   1.503       .  S
C1505      C1641   1.464       .  S
C1506      C1651   1.471       .  S
C1507      C1561   1.509       .  S
O1508      C1516   1.278       .  A
O1508     Co1528   2.025       .  S
O1509      C1517   1.271       .  A
O1509     Co1529   2.048   1_565  S
O1510      C1518   1.269       .  A
O1510     Co1530   1.909       .  S
O1511      C1519   1.258   1_554  A
O1511     Co1531   1.968   1_554  S
O1514      C1517   1.255   1_554  A
O1514     Co1531   1.979   1_554  S
O1515      C1516   1.270       .  A
O1515     Co1530   1.982       .  S
C1516      C1608   1.490       .  S
C1517      C1558   1.497       .  S
C1518      C1598   1.503       .  S
C1519      C1541   1.497   1_556  S
O1522      C1535   1.270       .  A
O1522     Co1530   2.042       .  S
O1523      C1536   1.280       .  A
O1523     Co1531   2.034       .  S
O1524      C1536   1.273   1_545  A
O1524     Co1529   2.000       .  S
O1525      C1535   1.256       .  A
O1525     Co1528   1.973       .  S
O1526      C1533   1.279       .  A
O1526     Co1531   2.072       .  S
O1527      C1534   1.296       .  A
O1527     Co1530   2.099       .  S
C1533      C1581   1.514       .  S
C1534      C1568   1.484       .  S
C1535      C1548   1.507       .  S
C1536      C1588   1.515   1_565  S
C1537      C1538   1.407       .  A
C1537      C1542   1.409       .  A
C1537      F1544   1.357       .  S
C1539      C1540   1.404       .  A
C1539      F1546   1.355       .  S
C1540      C1541   1.404   1_556  A
C1540      F1545   1.358       .  S
C1542      F1543   1.358       .  S
C1547      C1548   1.411       .  A
C1547      C1552   1.412       .  A
C1547      F1554   1.358       .  S
C1548      C1549   1.416       .  A
C1549      C1550   1.403       .  A
C1550      C1551   1.405       .  A
C1551      C1552   1.414       .  A
C1552      F1553   1.358       .  S
C1557      C1558   1.410   1_554  A
C1557      C1562   1.411       .  A
C1557      F1564   1.356       .  S
C1558      C1559   1.406       .  A
C1559      C1560   1.409       .  A
C1559      F1566   1.358       .  S
C1560      C1561   1.419       .  A
C1560      F1565   1.358       .  S
C1561      C1562   1.409   1_556  A
C1562      F1563   1.357       .  S
C1567      C1568   1.398       .  A
C1567      F1574   1.353       .  S
C1569      C1570   1.406       .  A
C1570      C1571   1.411   1_554  A
C1570      F1575   1.356       .  S
C1571      C1572   1.417       .  A
C1572      F1573   1.357       .  S
C1577      C1578   1.412       .  A
C1577      C1582   1.408       .  A
C1577      F1584   1.357       .  S
C1579      C1580   1.416       .  A
C1579      F1586   1.357       .  S
C1580      C1581   1.413       .  A
C1580      F1585   1.357       .  S
C1582      F1583   1.358       .  S
C1587      C1588   1.416       .  A
C1587      C1592   1.417       .  A
C1587      F1594   1.353       .  S
C1588      C1589   1.410   1_545  A
C1589      C1590   1.402       .  A
C1589      F1596   1.358       .  S
C1590      C1591   1.415   1_565  A
C1590      F1595   1.358       .  S
C1591      C1592   1.412       .  A
C1592      F1593   1.358       .  S
C1597      C1598   1.414       .  A
C1597      C1602   1.413       .  A
C1597      F1604   1.357       .  S
C1599      C1600   1.402       .  A
C1599      F1606   1.357       .  S
C1600      C1601   1.417   1_565  A
C1600      F1605   1.358       .  S
C1602      F1603   1.357       .  S
C1607      F1614   1.358       .  S
C1608      C1609   1.405       .  A
C1609      C1610   1.401       .  A
C1609      F1616   1.358       .  S
C1610      C1611   1.412       .  A
C1610      F1615   1.358       .  S
C1611      C1612   1.411       .  A
C1617      C1622   1.399       .  A
C1617      F1624   1.358       .  S
C1618      C1619   1.408       .  A
C1619      C1620   1.391       .  A
C1619      F1626   1.359       .  S
C1620      F1625   1.358       .  S
C1621      C1622   1.410       .  A
C1622      F1623   1.358       .  S
C1627      C1632   1.393       .  A
C1627      F1634   1.358       .  S
C1628      C1629   1.406       .  A
C1629      C1630   1.377       .  A
C1629      F1636   1.359       .  S
C1630      C1631   1.405       .  A
C1630      F1635   1.359       .  S
C1632      F1633   1.358       .  S
C1637      C1638   1.409       .  A
C1637      C1642   1.392       .  A
C1637      F1644   1.358       .  S
C1639      C1640   1.390       .  A
C1639      F1646   1.359       .  S
C1640      C1641   1.408       .  A
C1640      F1645   1.359       .  S
C1642      F1643   1.358       .  S
C1647      C1648   1.407   1_655  A
C1647      C1652   1.403       .  A
C1647      F1654   1.357       .  S
C1649      C1650   1.391       .  A
C1649      F1656   1.358       .  S
C1650      F1655   1.358       .  S
C1651      C1652   1.406   1_455  A
C1652      F1653   1.357       .  S
