geometry optimzed in LAMMPS
_audit_creation_date              2020-12-01 
_audit_creation_method            'lammps2cif' 
_symmetry_space_group_name_H-M    'P1' 
_symmetry_Int_Tables_number       1 
_symmetry_cell_setting            triclinic 
loop_ 
_symmetry_equiv_pos_as_xyz 
  x,y,z 
_cell_length_a                    26.77815524 
_cell_length_b                    26.768540730047572 
_cell_length_c                    41.61420109932002 
_cell_angle_alpha                 89.98081959247912 
_cell_angle_beta                  89.97909931227365 
_cell_angle_gamma                 133.51118432753788 
loop_ 
_atom_site_label 
_atom_site_type_symbol 
_atom_site_fract_x 
_atom_site_fract_y 
_atom_site_fract_z 
_atom_site_charge 
N1          N  0.17479677  0.45393419  0.12322126    -0.01700
C2          C  0.21993972  0.44949307  0.13435531     0.00900
C3          C  0.27922233  0.01422055  0.14487640    -0.22000
C4          C  0.26275372  0.05277577  0.14660023    -0.22200
C5          C  0.19193517  0.00625795  0.14156091     0.00800
H6          H  0.32853915  0.03245815  0.15092206     0.14500
H7          H  0.29327092  0.10070229  0.15980289     0.14600
N8          N  0.12643295  0.44144467  0.06727454    -0.01700
C9          C  0.17736937  0.46083980  0.08792528     0.00900
C10         C  0.23240545  0.47943299  0.06998804    -0.22000
C11         C  0.21437926  0.46670248  0.03857684    -0.22200
C12         C  0.15082635  0.44466904  0.03672422     0.00800
H13         H  0.28043352  0.49743256  0.07889118     0.14500
H14         H  0.24536183  0.47428229  0.01883149     0.14600
N15         N  0.49678760  0.07104220  0.05187016    -0.01700
C16         C  0.51623675  0.12200920  0.03118287     0.00900
C17         C  0.53492059  0.17711827  0.04908023    -0.22000
C18         C  0.52215935  0.15908918  0.08050634    -0.22200
C19         C  0.50004326  0.09547309  0.08240615     0.00800
H20         H  0.05297711  0.22518670  0.04014130     0.14500
H21         H  0.52977978  0.19011348  0.10023004     0.14600
O22         O  0.51501504  0.00364617  0.06968829    -0.83600
O23         O  0.37478046  0.41334870  0.08443296    -0.80600
C24         C  0.31104463  0.35845042  0.08815647     0.99900
O25         O  0.29163011  0.30057878  0.08680255    -0.80700
O26         O  0.30912629  0.30650566  0.02115399    -0.83300
C27         C  0.34670664  0.33132089  0.99600630     1.04400
O28         O  0.39584298  0.33604952  0.49631964    -0.76100
O29         O  0.46982769  0.47413343  0.02258197    -0.76300
C30         C  0.49432472  0.01515643  0.04686211     1.04300
O31         O  0.02954604  0.41446251  0.09662252    -0.83600
O32         O  0.39154228  0.34055273  0.12300893    -0.80700
C33         C  0.38662488  0.29127588  0.12334577     0.99900
O34         O  0.36177553  0.25367586  0.09822570    -0.80700
O35         O  0.35585168  0.23612508  0.03258253    -0.83300
C36         C  0.91368458  0.25550156  0.03116353     1.04400
O37         O  0.96858917  0.31923839  0.03486013    -0.76100
O38         O  0.05897389  0.45955867  0.04945883    -0.76300
C39         C  0.07052644  0.43892725  0.07230327     1.04300
Cr40       Cr  0.45144302  0.41569981  0.09269756     1.93700
Cr41       Cr  0.33410656  0.27872881  0.05968746     1.93200
Cr42       Cr  0.97101845  0.39597528  0.02654615     1.39100
O43         O  0.41822828  0.36282983  0.05964881    -1.21300
N44         N  0.00923056  0.11937050  0.99589547    -0.01700
C45         C  0.06154691  0.13658141  0.47750332     0.00900
C46         C  0.10797638  0.20741413  0.47242270    -0.22000
C47         C  0.06937387  0.22380846  0.47418069    -0.22200
C48         C  0.00469391  0.16447104  0.98476759     0.00800
H49         H  0.15590109  0.23800171  0.45918930     0.14500
H50         H  0.08759616  0.27315742  0.46814553     0.14600
N51         N  0.15170009  0.53151847  0.18753092    -0.01700
C52         C  0.15744564  0.48962986  0.17373296     0.00900
C53         C  0.17216964  0.46500875  0.19786527    -0.22000
C54         C  0.18796094  0.50173657  0.22523024    -0.22200
C55         C  0.17628937  0.54326169  0.21869393     0.00800
H56         H  0.18141459  0.43181084  0.19488926     0.14500
H57         H  0.20342914  0.49632477  0.24799302     0.14600
N58         N  0.43210141  0.31188654  0.18166823    -0.01700
C59         C  0.47396484  0.30612073  0.19545971     0.00900
C60         C  0.49854124  0.29135546  0.17132433    -0.22000
C61         C  0.46182222  0.27556861  0.14396386    -0.22200
C62         C  0.42034575  0.28728399  0.15050470     0.00800
H63         H  0.53171414  0.28209005  0.17429413     0.14500
H64         H  0.46721682  0.26008697  0.12119894     0.14600
O65         O  0.39909528  0.37283560  0.17767823    -0.83600
O66         O  0.37228233  0.43128713  0.13892490    -0.80600
C67         C  0.32517127  0.42743189  0.14757806     0.99900
O68         O  0.33012521  0.95175459  0.17421938    -0.80700
O69         O  0.39906103  0.01471828  0.23323452    -0.83300
C70         C  0.39992604  0.97901351  0.25377737     1.04400
O71         O  0.42453690  0.45419297  0.24569205    -0.76100
O72         O  0.48310210  0.41596069  0.20933755    -0.76300
C73         C  0.43430863  0.36546772  0.19194330     1.04300
O74         O  0.04766234  0.48053052  0.15986889    -0.83600
O75         O  0.50950380  0.03917035  0.12351694    -0.80700
C76         C  0.48474591  0.06384370  0.11543379     0.99900
O77         O  0.44908062  0.06474656  0.13597653    -0.80700
O78         O  0.51207823  0.13367342  0.19498094    -0.83300
C79         C  0.53636055  0.13861041  0.22162800     1.04400
O80         O  0.53243815  0.09144752  0.23029679    -0.76100
O81         O  0.09080842  0.56457327  0.19153234    -0.76300
C82         C  0.09814862  0.52933115  0.17726299     1.04300
Cr83       Cr  0.45719428  0.45820632  0.15183647     1.93700
Cr84       Cr  0.42576867  0.03803299  0.18460440     1.93200
Cr85       Cr  0.50547072  0.50648493  0.21737427     1.39100
O86         O  0.46229181  0.00141926  0.18460539    -1.21300
N87         N  0.50971867  0.28887978  0.24598452    -0.01700
C88         C  0.51422069  0.24377033  0.23485114     0.00900
C89         C  0.44952172  0.18441956  0.22434579    -0.22000
C90         C  0.41092164  0.20082655  0.22262484    -0.22200
C91         C  0.45738447  0.27167285  0.22764500     0.00800
H92         H  0.43132729  0.13510120  0.21831055     0.14500
H93         H  0.36299953  0.17025159  0.20943004     0.14600
N94         N  0.08689319  0.09642101  0.43153835    -0.01700
C95         C  0.04497825  0.10212314  0.44534502     0.00900
C96         C  0.02035218  0.11682633  0.42121205    -0.22000
C97         C  0.05706683  0.13261408  0.39382163    -0.22200
C98         C  0.09861962  0.12099140  0.40035408     0.00800
H99         H  0.98715137  0.12605722  0.42419721     0.14500
H100        H  0.05164267  0.14806314  0.37104995     0.14600
N101        N  0.36743424  0.37693102  0.43766380    -0.01700
C102        C  0.36174999  0.41886929  0.42385189     0.00900
C103        C  0.34708626  0.44353901  0.44798292    -0.22000
C104        C  0.33129585  0.40681702  0.47537739    -0.23000
C105        C  0.34287749  0.36521760  0.46884807     0.00800
H106        H  0.33787239  0.47676193  0.44499248     0.14500
H107        H  0.31585898  0.41225769  0.49814755     0.14600
O108        O  0.42828245  0.34382789  0.44165269    -0.83600
O109        O  0.98668886  0.31696039  0.48037688    -0.80600
C110        C  0.98268674  0.26976654  0.47168518     0.99900
O111        O  0.00692900  0.27471739  0.44501021    -0.80700
O112        O  0.07004105  0.34366294  0.38599508    -0.83300
C113        C  0.03429720  0.34447456  0.36548298     1.04400
O114        O  0.00948737  0.36909050  0.37357758    -0.76100
O115        O  0.47139459  0.42781183  0.40989679    -0.76300
C116        C  0.42093684  0.37905636  0.42735975     1.04300
O117        O  0.03600009  0.49242561  0.45931125    -0.83600
O118        O  0.09464435  0.45425675  0.49562954    -0.80700
C119        C  0.11919846  0.42938499  0.50372413     0.99900
O120        O  0.11997192  0.39360170  0.48321061    -0.80700
O121        O  0.18892460  0.45668424  0.42418655    -0.83300
C122        C  0.19389298  0.48096438  0.39751734     1.04400
O123        O  0.14675031  0.47702677  0.38884090    -0.76100
O124        O  0.11994741  0.53551563  0.42755758    -0.76300
C125        C  0.08474802  0.04288918  0.44184805     1.04300
Cr126      Cr  0.01365058  0.40192513  0.46740602     1.93700
Cr127      Cr  0.09329427  0.37034656  0.43460202     1.93200
Cr128      Cr  0.06183776  0.45011469  0.40180376     1.39100
O129        O  0.05677536  0.40695414  0.43460413    -1.21300
N130        N  0.34439313  0.45455550  0.37331438    -0.01700
C131        C  0.32724827  0.40225081  0.39170758     0.00900
C132        C  0.25644380  0.35576983  0.39680848    -0.22000
C133        C  0.23998906  0.39432875  0.39504598    -0.22200
C134        C  0.29926070  0.45903578  0.38444166     0.00800
H135        H  0.22591225  0.30784245  0.41005037     0.14500
H136        H  0.19064325  0.37606401  0.40108916     0.14600
O137        O  0.46010022  0.44875066  0.29952124    -0.83600
O138        O  0.05044311  0.08903888  0.28478422    -0.80600
C139        C  0.10534030  0.15278163  0.28104645     0.99900
O140        O  0.16317566  0.17216723  0.28239428    -0.80700
O141        O  0.15727709  0.15468763  0.34804380    -0.83300
C142        C  0.13245496  0.11710193  0.37319446     1.04400
O143        O  0.12765976  0.06790482  0.37288445    -0.76100
O144        O  0.48962352  0.49395914  0.34662660    -0.76300
C145        C  0.44860640  0.46945780  0.32234946     1.04300
O146        O  0.04919722  0.43414280  0.27258452    -0.83600
O147        O  0.12314361  0.57219464  0.24619474    -0.80700
C148        C  0.17235970  0.57704569  0.24585259     0.99900
O149        O  0.20995463  0.10188809  0.27096912    -0.80700
O150        O  0.22752371  0.10783703  0.33661062    -0.83300
C151        C  0.20811666  0.54996699  0.33803606     1.04400
O152        O  0.14438628  0.49506224  0.33435414    -0.76100
O153        O  0.00412066  0.40472549  0.31974944    -0.76300
C154        C  0.02473582  0.39315648  0.29690616     1.04300
Cr155      Cr  0.04802218  0.51230902  0.27651160     1.93700
Cr156      Cr  0.18497548  0.12963430  0.30950832     1.93200
Cr157      Cr  0.06771821  0.49270518  0.34266236     1.39100
O158        O  0.10087712  0.54551065  0.30955710    -1.21300
N159        N  0.02220778  0.33722763  0.30193567    -0.01700
C160        C  0.00279971  0.28627604  0.28128014     0.00900
C161        C  0.98421456  0.23121364  0.29921097    -0.22000
C162        C  0.99695540  0.24924415  0.33062373    -0.22200
C163        C  0.01899086  0.31282428  0.33248296     0.00800
H164        H  0.96622146  0.18317127  0.29030227     0.14500
H165        H  0.98938917  0.21825058  0.35036540     0.14600
N166        N  0.39274176  0.46700349  0.31734387    -0.01700
C167        C  0.34178419  0.44755484  0.33802693     0.00900
C168        C  0.28669739  0.42885280  0.32012412    -0.22000
C169        C  0.30472441  0.44161000  0.28869976    -0.22200
C170        C  0.36831913  0.46373728  0.28680554     0.00800
H171        H  0.23863962  0.41078193  0.32905845     0.14500
H172        H  0.27370868  0.43397060  0.26897307     0.14600
N173        N  0.24969570  0.51150517  0.37519940    -0.01700
C174        C  0.30336879  0.51583643  0.37513713     0.00900
C175        C  0.35199950  0.56568581  0.35290291    -0.22000
C176        C  0.32290023  0.58465743  0.33613485    -0.22200
C177        C  0.25874810  0.54760579  0.34930012     0.00800
H178        H  0.39951731  0.57985136  0.34639852     0.14500
H179        H  0.34419159  0.61825649  0.31543885     0.14600
N180        N  0.56688863  0.19439944  0.24393116    -0.01700
C181        C  0.57111931  0.24802146  0.24403229     0.00900
C182        C  0.12094866  0.29665890  0.26622711    -0.22000
C183        C  0.13998032  0.26757233  0.28295638    -0.22200
C184        C  0.10299131  0.20344046  0.26979479     0.00800
H185        H  0.13504152  0.34414192  0.27274759     0.14500
H186        H  0.17355604  0.28884347  0.30362979     0.14600
N187        N  0.95212225  0.21392274  0.49399125    -0.01700
C188        C  0.94785798  0.16027636  0.49406349     0.00900
C189        C  0.89804300  0.11161605  0.01630034    -0.22000
C190        C  0.37902991  0.14068894  0.03306228    -0.22200
C191        C  0.91602088  0.20484593  0.01988750     0.00800
H192        H  0.88393434  0.06411068  0.02281399     0.14500
H193        H  0.34546674  0.11939465  0.05376653     0.14600
N194        N  0.26942429  0.39692645  0.12526271    -0.01700
C195        C  0.21577375  0.39262604  0.12517143     0.00900
C196        C  0.16716535  0.34275678  0.10298123    -0.22000
C197        C  0.19627977  0.32376646  0.08624602    -0.22200
C198        C  0.26040828  0.36082187  0.09939664     0.00800
H199        H  0.11966902  0.32860467  0.09647034     0.14500
H200        H  0.17501116  0.29015084  0.06558174     0.14600
N201        N  0.17479677  0.45393419  0.62322126    -0.01700
C202        C  0.21993970  0.44949304  0.63435529     0.00900
C203        C  0.27922231  0.01422055  0.64487637    -0.22000
C204        C  0.26275373  0.05277579  0.64660017    -0.22200
C205        C  0.19193517  0.00625797  0.64156087     0.00800
H206        H  0.32853916  0.03245816  0.65092203     0.14500
H207        H  0.29327094  0.10070234  0.65980281     0.14600
N208        N  0.12643298  0.44144465  0.56727455    -0.01700
C209        C  0.17736939  0.46083984  0.58792528     0.00900
C210        C  0.23240554  0.47943304  0.56998806    -0.22000
C211        C  0.21437935  0.46670253  0.53857684    -0.22200
C212        C  0.15082640  0.44466907  0.53672424     0.00800
H213        H  0.28043352  0.49743258  0.57889119     0.14500
H214        H  0.24536194  0.47428236  0.51883151     0.14600
N215        N  0.49678759  0.07104219  0.55187012    -0.01700
C216        C  0.51623675  0.12200921  0.53118286     0.00900
C217        C  0.53492060  0.17711828  0.54908021    -0.22000
C218        C  0.52215935  0.15908916  0.58050629    -0.22200
C219        C  0.50004325  0.09547308  0.58240611     0.00800
H220        H  0.05297712  0.22518672  0.54014129     0.14500
H221        H  0.52977981  0.19011356  0.60023002     0.14600
O222        O  0.51501504  0.00364618  0.56968824    -0.83600
O223        O  0.37478048  0.41334871  0.58443295    -0.80600
C224        C  0.31104463  0.35845044  0.58815642     0.99900
O225        O  0.29163010  0.30057880  0.58680257    -0.80700
O226        O  0.30912634  0.30650571  0.52115408    -0.83300
C227        C  0.34670665  0.33132089  0.49600635     1.04400
O228        O  0.39584298  0.33604952  0.99631957    -0.76100
O229        O  0.46982760  0.47413336  0.52258203    -0.76300
C230        C  0.49432472  0.01515643  0.54686205     1.04300
O231        O  0.02954590  0.41446222  0.59662248    -0.83600
O232        O  0.39154227  0.34055275  0.62300905    -0.80700
C233        C  0.38662487  0.29127589  0.62334587     0.99900
O234        O  0.36177550  0.25367587  0.59822582    -0.80700
O235        O  0.35585169  0.23612504  0.53258271    -0.83300
C236        C  0.91368459  0.25550155  0.53116364     1.04400
O237        O  0.96858918  0.31923840  0.53486016    -0.76100
O238        O  0.05897394  0.45955869  0.54945886    -0.76300
C239        C  0.07052641  0.43892715  0.57230326     1.04300
Cr240      Cr  0.45144302  0.41569979  0.59269763     1.93700
Cr241      Cr  0.33410656  0.27872882  0.55968757     1.93200
Cr242      Cr  0.97101840  0.39597527  0.52654623     1.39100
O243        O  0.41822825  0.36282981  0.55964891    -1.21300
N244        N  0.00923052  0.11937050  0.49589547    -0.01700
C245        C  0.06154693  0.13658142  0.97750329     0.00900
C246        C  0.10797639  0.20741414  0.97242265    -0.22000
C247        C  0.06937388  0.22380845  0.97418064    -0.22200
C248        C  0.00469388  0.16447105  0.48476760     0.00800
H249        H  0.15590110  0.23800171  0.95918924     0.14500
H250        H  0.08759619  0.27315743  0.96814549     0.14600
N251        N  0.15170011  0.53151849  0.68753092    -0.01700
C252        C  0.15744558  0.48962979  0.67373298     0.00900
C253        C  0.17216958  0.46500872  0.69786531    -0.22000
C254        C  0.18796097  0.50173663  0.72523025    -0.22200
C255        C  0.17628943  0.54326176  0.71869392     0.00800
H256        H  0.18141460  0.43181083  0.69488933     0.14500
H257        H  0.20342921  0.49632489  0.74799305     0.14600
N258        N  0.43210147  0.31188659  0.68166827    -0.01700
C259        C  0.47396491  0.30612076  0.69545970     0.00900
C260        C  0.49854126  0.29135547  0.67132430    -0.22000
C261        C  0.46182219  0.27556862  0.64396384    -0.22200
C262        C  0.42034575  0.28728402  0.65050475     0.00800
H263        H  0.53171416  0.28209005  0.67429406     0.14500
H264        H  0.46721675  0.26008700  0.62119892     0.14600
O265        O  0.39909529  0.37283566  0.67767835    -0.83600
O266        O  0.37228232  0.43128713  0.63892485    -0.80600
C267        C  0.32517125  0.42743187  0.64757800     0.99900
O268        O  0.33012517  0.95175456  0.67421947    -0.80700
O269        O  0.39906106  0.01471832  0.73323451    -0.83300
C270        C  0.39992605  0.97901352  0.75377736     1.04400
O271        O  0.42453698  0.45419306  0.74569211    -0.76100
O272        O  0.48310209  0.41596065  0.70933766    -0.76300
C273        C  0.43430863  0.36546772  0.69194341     1.04300
O274        O  0.04766225  0.48053042  0.65986895    -0.83600
O275        O  0.50950376  0.03917032  0.62351689    -0.80700
C276        C  0.48474589  0.06384368  0.61543374     0.99900
O277        O  0.44908058  0.06474653  0.63597649    -0.80700
O278        O  0.51207830  0.13367342  0.69498092    -0.83300
C279        C  0.53636055  0.13861041  0.72162800     1.04400
O280        O  0.53243808  0.09144749  0.73029681    -0.76100
O281        O  0.09080845  0.56457332  0.69153230    -0.76300
C282        C  0.09814861  0.52933114  0.67726299     1.04300
Cr283      Cr  0.45719426  0.45820627  0.65183648     1.93700
Cr284      Cr  0.42576868  0.03803300  0.68460439     1.93200
Cr285      Cr  0.50547073  0.50648494  0.71737427     1.39100
O286        O  0.46229182  0.00141927  0.68460538    -1.21300
N287        N  0.50971863  0.28887972  0.74598452    -0.01700
C288        C  0.51422066  0.24377030  0.73485113     0.00900
C289        C  0.44952173  0.18441957  0.72434574    -0.22000
C290        C  0.41092165  0.20082656  0.72262479    -0.22200
C291        C  0.45738448  0.27167284  0.72764498     0.00800
H292        H  0.43132731  0.13510123  0.71831048     0.14500
H293        H  0.36299955  0.17025162  0.70942998     0.14600
N294        N  0.08689317  0.09642100  0.93153830    -0.01700
C295        C  0.04497825  0.10212315  0.94534496     0.00900
C296        C  0.02035218  0.11682634  0.92121199    -0.22000
C297        C  0.05706683  0.13261408  0.89382157    -0.22200
C298        C  0.09861961  0.12099139  0.90035403     0.00800
H299        H  0.98715137  0.12605723  0.92419716     0.14500
H300        H  0.05164267  0.14806315  0.87104989     0.14600
N301        N  0.36743428  0.37693109  0.93766383    -0.01700
C302        C  0.36174999  0.41886933  0.92385193     0.00900
C303        C  0.34708623  0.44353902  0.94798295    -0.22000
C304        C  0.33129585  0.40681707  0.97537747    -0.23000
C305        C  0.34287753  0.36521765  0.96884807     0.00800
H306        H  0.33787236  0.47676191  0.94499248     0.14500
H307        H  0.31585906  0.41225771  0.99814755     0.14600
O308        O  0.42828246  0.34382790  0.94165267    -0.83600
O309        O  0.98668884  0.31696039  0.98037685    -0.80600
C310        C  0.98268679  0.26976655  0.97168514     0.99900
O311        O  0.00692909  0.27471744  0.94501021    -0.80700
O312        O  0.07004110  0.34366302  0.88599505    -0.83300
C313        C  0.03429733  0.34447471  0.86548294     1.04400
O314        O  0.00948744  0.36909060  0.87357752    -0.76100
O315        O  0.47139457  0.42781183  0.90989678    -0.76300
C316        C  0.42093687  0.37905642  0.92735977     1.04300
O317        O  0.03600008  0.49242559  0.95931123    -0.83600
O318        O  0.09464436  0.45425677  0.99562948    -0.80700
C319        C  0.11919844  0.42938501  0.00372409     0.99900
O320        O  0.11997195  0.39360175  0.98321057    -0.80700
O321        O  0.18892462  0.45668421  0.92418652    -0.83300
C322        C  0.19389299  0.48096440  0.89751732     1.04400
O323        O  0.14675036  0.47702687  0.88884091    -0.76100
O324        O  0.11994741  0.53551565  0.92755759    -0.76300
C325        C  0.08474803  0.04288919  0.94184804     1.04300
Cr326      Cr  0.01365058  0.40192512  0.96740599     1.93700
Cr327      Cr  0.09329429  0.37034659  0.93460198     1.93200
Cr328      Cr  0.06183775  0.45011473  0.90180374     1.39100
O329        O  0.05677534  0.40695413  0.93460409    -1.21300
N330        N  0.34439313  0.45455550  0.87331438    -0.01700
C331        C  0.32724826  0.40225082  0.89170760     0.00900
C332        C  0.25644381  0.35576988  0.89680848    -0.22000
C333        C  0.23998902  0.39432873  0.89504594    -0.22200
C334        C  0.29926069  0.45903577  0.88444163     0.00800
H335        H  0.22591219  0.30784247  0.91005044     0.14500
H336        H  0.19064325  0.37606398  0.90108911     0.14600
O337        O  0.46010022  0.44875065  0.79952123    -0.83600
O338        O  0.05044311  0.08903887  0.78478422    -0.80600
C339        C  0.10534028  0.15278163  0.78104645     0.99900
O340        O  0.16317567  0.17216724  0.78239424    -0.80700
O341        O  0.15727709  0.15468763  0.84804374    -0.83300
C342        C  0.13245496  0.11710193  0.87319441     1.04400
O343        O  0.12765979  0.06790484  0.87288442    -0.76100
O344        O  0.48962356  0.49395914  0.84662658    -0.76300
C345        C  0.44860641  0.46945778  0.82234945     1.04300
O346        O  0.04919724  0.43414280  0.77258448    -0.83600
O347        O  0.12314367  0.57219469  0.74619472    -0.80700
C348        C  0.17235974  0.57704572  0.74585257     0.99900
O349        O  0.20995470  0.10188813  0.77096910    -0.80700
O350        O  0.22752379  0.10783705  0.83661066    -0.83300
C351        C  0.20811666  0.54996696  0.83803604     1.04400
O352        O  0.14438627  0.49506223  0.83435413    -0.76100
O353        O  0.00412067  0.40472552  0.81974939    -0.76300
C354        C  0.02473582  0.39315648  0.79690612     1.04300
Cr355      Cr  0.04802222  0.51230905  0.77651157     1.93700
Cr356      Cr  0.18497554  0.12963432  0.80950829     1.93200
Cr357      Cr  0.06771824  0.49270519  0.84266234     1.39100
O358        O  0.10087717  0.54551070  0.80955709    -1.21300
N359        N  0.02220779  0.33722762  0.80193567    -0.01700
C360        C  0.00279968  0.28627598  0.78128017     0.00900
C361        C  0.98421465  0.23121368  0.79921104    -0.22000
C362        C  0.99695567  0.24924427  0.83062382    -0.22200
C363        C  0.01899099  0.31282439  0.83248296     0.00800
H364        H  0.96622143  0.18317119  0.79030238     0.14500
H365        H  0.98938961  0.21825096  0.85036546     0.14600
N366        N  0.39274176  0.46700350  0.81734388    -0.01700
C367        C  0.34178416  0.44755479  0.83802694     0.00900
C368        C  0.28669737  0.42885279  0.82012411    -0.22000
C369        C  0.30472444  0.44161002  0.78869976    -0.22200
C370        C  0.36831918  0.46373736  0.78680555     0.00800
H371        H  0.23863959  0.41078191  0.82905841     0.14500
H372        H  0.27370875  0.43397062  0.76897305     0.14600
N373        N  0.24969565  0.51150510  0.87519937    -0.01700
C374        C  0.30336875  0.51583638  0.87513709     0.00900
C375        C  0.35199951  0.56568583  0.85290290    -0.22000
C376        C  0.32290029  0.58465755  0.83613490    -0.22200
C377        C  0.25874809  0.54760578  0.84930011     0.00800
H378        H  0.39951730  0.57985133  0.84639849     0.14500
H379        H  0.34419173  0.61825676  0.81543893     0.14600
N380        N  0.56688863  0.19439945  0.74393115    -0.01700
C381        C  0.57111933  0.24802147  0.74403225     0.00900
C382        C  0.12094868  0.29665893  0.76622706    -0.22000
C383        C  0.13998031  0.26757236  0.78295635    -0.22200
C384        C  0.10299124  0.20344045  0.76979481     0.00800
H385        H  0.13504155  0.34414196  0.77274751     0.14500
H386        H  0.17355612  0.28884357  0.80362975     0.14600
N387        N  0.95212226  0.21392276  0.99399120    -0.01700
C388        C  0.94785805  0.16027639  0.99406349     0.00900
C389        C  0.89804287  0.11161593  0.51630029    -0.22000
C390        C  0.37902971  0.14068871  0.53306227    -0.22200
C391        C  0.91602086  0.20484589  0.51988758     0.00800
H392        H  0.88393425  0.06411056  0.52281391     0.14500
H393        H  0.34546645  0.11939425  0.55376645     0.14600
N394        N  0.26942424  0.39692639  0.62526267    -0.01700
C395        C  0.21577367  0.39262595  0.62517141     0.00900
C396        C  0.16716530  0.34275671  0.60298118    -0.22000
C397        C  0.19627976  0.32376645  0.58624595    -0.22200
C398        C  0.26040827  0.36082188  0.59939657     0.00800
H399        H  0.11966897  0.32860460  0.59647025     0.14500
H400        H  0.17501120  0.29015087  0.56558165     0.14600
N401        N  0.17479649  0.95393402  0.12322141    -0.01700
C402        C  0.21993949  0.94949292  0.13435545     0.00900
C403        C  0.27922275  0.51422079  0.14487616    -0.22000
C404        C  0.26275408  0.55277599  0.14659997    -0.22200
C405        C  0.19193553  0.50625820  0.14156073     0.00800
H406        H  0.32853937  0.53245834  0.15092175     0.14500
H407        H  0.29327135  0.60070253  0.15980263     0.14600
N408        N  0.12643247  0.94144421  0.06727470    -0.01700
C409        C  0.17736898  0.96083951  0.08792541     0.00900
C410        C  0.23240503  0.97943271  0.06998816    -0.22000
C411        C  0.21437880  0.96670207  0.03857697    -0.22200
C412        C  0.15082586  0.94466861  0.03672436     0.00800
H413        H  0.28043321  0.99743250  0.07889129     0.14500
H414        H  0.24536135  0.97428193  0.01883162     0.14600
N415        N  0.49678785  0.57104230  0.05186999    -0.01700
C416        C  0.51623727  0.62200946  0.03118271     0.00900
C417        C  0.53492149  0.67711869  0.04908004    -0.22000
C418        C  0.52216036  0.65908973  0.08050610    -0.22200
C419        C  0.50004379  0.59547345  0.08240598     0.00800
H420        H  0.05297761  0.72518706  0.04014109     0.14500
H421        H  0.52978095  0.69011427  0.10022983     0.14600
O422        O  0.51501541  0.50364639  0.06968810    -0.83600
O423        O  0.37478009  0.91334835  0.08443310    -0.80600
C424        C  0.31104423  0.85845009  0.08815652     0.99900
O425        O  0.29162967  0.80057843  0.08680264    -0.80700
O426        O  0.30912597  0.80650523  0.02115416    -0.83300
C427        C  0.34670638  0.83132061  0.99600647     1.04400
O428        O  0.39584288  0.83604948  0.49631978    -0.76100
O429        O  0.46982744  0.97413340  0.02258213    -0.76300
C430        C  0.49432501  0.51515656  0.04686191     1.04300
O431        O  0.02954567  0.91446221  0.09662264    -0.83600
O432        O  0.39154219  0.84055275  0.12300917    -0.80700
C433        C  0.38662475  0.79127588  0.12334598     0.99900
O434        O  0.36177523  0.75367576  0.09822595    -0.80700
O435        O  0.35585149  0.73612478  0.03258281    -0.83300
C436        C  0.91368447  0.75550142  0.03116369     1.04400
O437        O  0.96858902  0.81923833  0.03486018    -0.76100
O438        O  0.05897377  0.95955859  0.04945899    -0.76300
C439        C  0.07052613  0.93892698  0.07230341     1.04300
Cr440      Cr  0.45144273  0.91569960  0.09269775     1.93700
Cr441      Cr  0.33410628  0.77872853  0.05968766     1.93200
Cr442      Cr  0.97101824  0.89597525  0.02654632     1.39100
O443        O  0.41822797  0.86282960  0.05964901    -1.21300
N444        N  0.00923074  0.61937065  0.99589535    -0.01700
C445        C  0.06154711  0.63658174  0.47750308     0.00900
C446        C  0.10797637  0.70741443  0.47242243    -0.22000
C447        C  0.06937373  0.72380858  0.47418050    -0.22200
C448        C  0.00469385  0.66447106  0.98476754     0.00800
H449        H  0.15590109  0.73800211  0.45918904     0.14500
H450        H  0.08759598  0.77315751  0.46814545     0.14600
N451        N  0.15169957  0.03151807  0.18753107    -0.01700
C452        C  0.15744511  0.98962944  0.17373313     0.00900
C453        C  0.17216918  0.96500843  0.19786545    -0.22000
C454        C  0.18796076  0.00173645  0.22523041    -0.22200
C455        C  0.17628910  0.04326151  0.21869404     0.00800
H456        H  0.18141420  0.93181049  0.19488951     0.14500
H457        H  0.20342911  0.99632492  0.24799310     0.14600
N458        N  0.43210135  0.81188643  0.18166836    -0.01700
C459        C  0.47396485  0.80612063  0.19545977     0.00900
C460        C  0.49854125  0.79135546  0.17132434    -0.22000
C461        C  0.46182222  0.77556871  0.14396387    -0.22200
C462        C  0.42034573  0.78728403  0.15050480     0.00800
H463        H  0.53171419  0.78209008  0.17429407     0.14500
H464        H  0.46721680  0.76008715  0.12119894     0.14600
O465        O  0.39909491  0.87283525  0.17767845    -0.83600
O466        O  0.37228190  0.93128668  0.13892496    -0.80600
C467        C  0.32517087  0.92743147  0.14757813     0.99900
O468        O  0.33012553  0.45175492  0.17421932    -0.80700
O469        O  0.39906137  0.51471848  0.23323440    -0.83300
C470        C  0.39992629  0.47901359  0.25377720     1.04400
O471        O  0.42453670  0.95419294  0.24569226    -0.76100
O472        O  0.48310173  0.91596039  0.20933780    -0.76300
C473        C  0.43430834  0.86546743  0.19194351     1.04300
O474        O  0.04766175  0.98053013  0.15986902    -0.83600
O475        O  0.50950429  0.53917078  0.12351678    -0.80700
C476        C  0.48474647  0.56384417  0.11543366     0.99900
O477        O  0.44908124  0.56474711  0.13597644    -0.80700
O478        O  0.51207859  0.63367370  0.19498088    -0.83300
C479        C  0.53636086  0.63861063  0.22162797     1.04400
O480        O  0.53243835  0.59144768  0.23029674    -0.76100
O481        O  0.09080793  0.06457291  0.19153249    -0.76300
C482        C  0.09814809  0.02933077  0.17726313     1.04300
Cr483      Cr  0.45719382  0.95820588  0.15183661     1.93700
Cr484      Cr  0.42576909  0.53803330  0.18460431     1.93200
Cr485      Cr  0.50547037  0.00648468  0.21737441     1.39100
O486        O  0.46229226  0.50141960  0.18460527    -1.21300
N487        N  0.50971883  0.78887978  0.24598458    -0.01700
C488        C  0.51422092  0.74377042  0.23485116     0.00900
C489        C  0.44952201  0.68441963  0.22434581    -0.22000
C490        C  0.41092170  0.70082640  0.22262487    -0.22200
C491        C  0.45738459  0.77167276  0.22764507     0.00800
H492        H  0.43132759  0.63510128  0.21831056     0.14500
H493        H  0.36299987  0.67025158  0.20943018     0.14600
N494        N  0.08689353  0.59642131  0.43153819    -0.01700
C495        C  0.04497850  0.60212337  0.44534480     0.00900
C496        C  0.02035243  0.61682648  0.42121178    -0.22000
C497        C  0.05706711  0.63261420  0.39382138    -0.22200
C498        C  0.09861999  0.62099168  0.40035392     0.00800
H499        H  0.98715161  0.62605738  0.42419690     0.14500
H500        H  0.05164303  0.64806324  0.37104966     0.14600
N501        N  0.36743388  0.87693063  0.43766396    -0.01700
C502        C  0.36174952  0.91886886  0.42385207     0.00900
C503        C  0.34708585  0.94353853  0.44798311    -0.22000
C504        C  0.33129550  0.90681664  0.47537761    -0.23000
C505        C  0.34287718  0.86521724  0.46884822     0.00800
H506        H  0.33787186  0.97676145  0.44499265     0.14500
H507        H  0.31585865  0.91225722  0.49814772     0.14600
O508        O  0.42828206  0.84382747  0.44165276    -0.83600
O509        O  0.98668841  0.81696001  0.48037693    -0.80600
C510        C  0.98268648  0.76976624  0.47168526     0.99900
O511        O  0.00692874  0.77471706  0.44501030    -0.80700
O512        O  0.07004058  0.84366265  0.38599515    -0.83300
C513        C  0.03429680  0.84447432  0.36548304     1.04400
O514        O  0.00948688  0.86909020  0.37357763    -0.76100
O515        O  0.47139415  0.92781141  0.40989689    -0.76300
C516        C  0.42093644  0.87905596  0.42735986     1.04300
O517        O  0.03599961  0.99242520  0.45931135    -0.83600
O518        O  0.09464364  0.95425616  0.49562966    -0.80700
C519        C  0.11919796  0.92938459  0.50372421     0.99900
O520        O  0.11997159  0.89360145  0.48321065    -0.80700
O521        O  0.18892412  0.95668389  0.42418667    -0.83300
C522        C  0.19389256  0.98096421  0.39751751     1.04400
O523        O  0.14674984  0.97702651  0.38884106    -0.76100
O524        O  0.11994695  0.03551521  0.42755776    -0.76300
C525        C  0.08474843  0.54288954  0.44184789     1.04300
Cr526      Cr  0.01365000  0.90192465  0.46740611     1.93700
Cr527      Cr  0.09329384  0.87034619  0.43460208     1.93200
Cr528      Cr  0.06183724  0.95011431  0.40180389     1.39100
O529        O  0.05677483  0.90695369  0.43460422    -1.21300
N530        N  0.34439277  0.95455529  0.37331457    -0.01700
C531        C  0.32724783  0.90225049  0.39170773     0.00900
C532        C  0.25644335  0.85576953  0.39680855    -0.22000
C533        C  0.23998850  0.89432839  0.39504601    -0.22200
C534        C  0.29926033  0.95903555  0.38444182     0.00800
H535        H  0.22591165  0.80784207  0.41005047     0.14500
H536        H  0.19064298  0.87606379  0.40108912     0.14600
O537        O  0.46009959  0.94875021  0.29952137    -0.83600
O538        O  0.05044361  0.58903942  0.28478420    -0.80600
C539        C  0.10534081  0.65278210  0.28104634     0.99900
O540        O  0.16317611  0.67216758  0.28239413    -0.80700
O541        O  0.15727770  0.65468816  0.34804372    -0.83300
C542        C  0.13245545  0.61710231  0.37319434     1.04400
O543        O  0.12766011  0.56790513  0.37288428    -0.76100
O544        O  0.48962338  0.99395905  0.34662667    -0.76300
C545        C  0.44860604  0.96945753  0.32234962     1.04300
O546        O  0.04919667  0.93414227  0.27258457    -0.83600
O547        O  0.12314322  0.07219418  0.24619486    -0.80700
C548        C  0.17235944  0.07704545  0.24585269     0.99900
O549        O  0.20995488  0.60188827  0.27096904    -0.80700
O550        O  0.22752414  0.60783736  0.33661059    -0.83300
C551        C  0.20811625  0.04996669  0.33803619     1.04400
O552        O  0.14438589  0.99506186  0.33435433    -0.76100
O553        O  0.00412032  0.90472521  0.31974953    -0.76300
C554        C  0.02473547  0.89315614  0.29690626     1.04300
Cr555      Cr  0.04802174  0.01230855  0.27651169     1.93700
Cr556      Cr  0.18497587  0.62963461  0.30950823     1.93200
Cr557      Cr  0.06771790  0.99270487  0.34266250     1.39100
O558        O  0.10087677  0.04551030  0.30955721    -1.21300
N559        N  0.02220754  0.83722737  0.30193578    -0.01700
C560        C  0.00279997  0.78627600  0.28128024     0.00900
C561        C  0.98421503  0.73121371  0.29921110    -0.22000
C562        C  0.99695568  0.74924414  0.33062390    -0.22200
C563        C  0.01899063  0.81282409  0.33248307     0.00800
H564        H  0.96622205  0.68317134  0.29030242     0.14500
H565        H  0.98938965  0.71825079  0.35036555     0.14600
N566        N  0.39274157  0.96700352  0.31734406    -0.01700
C567        C  0.34178399  0.94755483  0.33802711     0.00900
C568        C  0.28669722  0.92885286  0.32012427    -0.22000
C569        C  0.30472422  0.94160983  0.28869995    -0.22200
C570        C  0.36831892  0.96373722  0.28680572     0.00800
H571        H  0.23863947  0.91078213  0.32905857     0.14500
H572        H  0.27370836  0.93397030  0.26897314     0.14600
N573        N  0.24969536  0.01150509  0.37519961    -0.01700
C574        C  0.30336842  0.01583629  0.37513735     0.00900
C575        C  0.35199917  0.06568575  0.35290315    -0.22000
C576        C  0.32289991  0.08465741  0.33613507    -0.22200
C577        C  0.25874775  0.04760567  0.34930033     0.00800
H578        H  0.39951697  0.07985131  0.34639876     0.14500
H579        H  0.34419117  0.11825637  0.31543912     0.14600
N580        N  0.56688889  0.69439964  0.24393112    -0.01700
C581        C  0.57111967  0.74802169  0.24403222     0.00900
C582        C  0.12094904  0.79665932  0.26622695    -0.22000
C583        C  0.13998095  0.76757292  0.28295615    -0.22200
C584        C  0.10299186  0.70344094  0.26979467     0.00800
H585        H  0.13504174  0.84414218  0.27274741     0.14500
H586        H  0.17355682  0.78884427  0.30362956     0.14600
N587        N  0.95212210  0.71392257  0.49399133    -0.01700
C588        C  0.94785797  0.66027627  0.49406358     0.00900
C589        C  0.89804323  0.61161604  0.01630058    -0.22000
C590        C  0.37902994  0.64068882  0.03306251    -0.22200
C591        C  0.91602082  0.70484577  0.01988769     0.00800
H592        H  0.88393481  0.56411076  0.02281428     0.14500
H593        H  0.34546690  0.61939458  0.05376678     0.14600
N594        N  0.26942388  0.89692603  0.12526281    -0.01700
C595        C  0.21577346  0.89262585  0.12517151     0.00900
C596        C  0.16716517  0.84275680  0.10298124    -0.22000
C597        C  0.19627957  0.82376655  0.08624598    -0.22200
C598        C  0.26040792  0.86082162  0.09939665     0.00800
H599        H  0.11966888  0.82860488  0.09647031     0.14500
H600        H  0.17501099  0.79015108  0.06558156     0.14600
N601        N  0.17479649  0.95393402  0.62322139    -0.01700
C602        C  0.21993945  0.94949289  0.63435547     0.00900
C603        C  0.27922271  0.51422074  0.64487616    -0.22000
C604        C  0.26275407  0.55277593  0.64660008    -0.22200
C605        C  0.19193555  0.50625817  0.64156077     0.00800
H606        H  0.32853935  0.53245826  0.65092177     0.14500
H607        H  0.29327126  0.60070233  0.65980286     0.14600
N608        N  0.12643249  0.94144421  0.56727467    -0.01700
C609        C  0.17736898  0.96083949  0.58792538     0.00900
C610        C  0.23240503  0.97943269  0.56998814    -0.22000
C611        C  0.21437885  0.96670209  0.53857691    -0.22200
C612        C  0.15082588  0.94466862  0.53672434     0.00800
H613        H  0.28043319  0.99743245  0.57889128     0.14500
H614        H  0.24536128  0.97428190  0.51883159     0.14600
N615        N  0.49678786  0.57104231  0.55186998    -0.01700
C616        C  0.51623726  0.62200947  0.53118269     0.00900
C617        C  0.53492146  0.67711866  0.54908005    -0.22000
C618        C  0.52216035  0.65908972  0.58050610    -0.22200
C619        C  0.50004381  0.59547347  0.58240597     0.00800
H620        H  0.05297760  0.72518710  0.54014108     0.14500
H621        H  0.52978091  0.69011424  0.60022988     0.14600
O622        O  0.51501545  0.50364642  0.56968814    -0.83600
O623        O  0.37478017  0.91334838  0.58443312    -0.80600
C624        C  0.31104430  0.85845013  0.58815654     0.99900
O625        O  0.29162967  0.80057845  0.58680258    -0.80700
O626        O  0.30912594  0.80650518  0.52115415    -0.83300
C627        C  0.34670640  0.83132061  0.49600648     1.04400
O628        O  0.39584288  0.83604952  0.99631975    -0.76100
O629        O  0.46982746  0.97413341  0.52258208    -0.76300
C630        C  0.49432503  0.51515657  0.54686194     1.04300
O631        O  0.02954565  0.91446215  0.59662263    -0.83600
O632        O  0.39154221  0.84055279  0.62300915    -0.80700
C633        C  0.38662475  0.79127591  0.62334596     0.99900
O634        O  0.36177525  0.75367580  0.59822593    -0.80700
O635        O  0.35585148  0.73612474  0.53258288    -0.83300
C636        C  0.91368447  0.75550141  0.53116373     1.04400
O637        O  0.96858902  0.81923833  0.53486025    -0.76100
O638        O  0.05897378  0.95955865  0.54945901    -0.76300
C639        C  0.07052613  0.93892698  0.57230340     1.04300
Cr640      Cr  0.45144277  0.91569960  0.59269772     1.93700
Cr641      Cr  0.33410628  0.77872854  0.55968764     1.93200
Cr642      Cr  0.97101827  0.89597527  0.52654632     1.39100
O643        O  0.41822797  0.86282962  0.55964898    -1.21300
N644        N  0.00923073  0.61937066  0.49589531    -0.01700
C645        C  0.06154712  0.63658174  0.97750312     0.00900
C646        C  0.10797636  0.70741442  0.97242246    -0.22000
C647        C  0.06937371  0.72380855  0.97418058    -0.22200
C648        C  0.00469385  0.66447106  0.48476749     0.00800
H649        H  0.15590095  0.73800204  0.95918900     0.14500
H650        H  0.08759596  0.77315754  0.96814554     0.14600
N651        N  0.15169957  0.03151809  0.68753104    -0.01700
C652        C  0.15744512  0.98962948  0.67373309     0.00900
C653        C  0.17216918  0.96500844  0.69786541    -0.22000
C654        C  0.18796073  0.00173646  0.72523034    -0.22200
C655        C  0.17628910  0.04326152  0.71869402     0.00800
H656        H  0.18141416  0.93181047  0.69488947     0.14500
H657        H  0.20342909  0.99632486  0.74799309     0.14600
N658        N  0.43210134  0.81188642  0.68166837    -0.01700
C659        C  0.47396486  0.80612063  0.69545976     0.00900
C660        C  0.49854126  0.79135548  0.67132431    -0.22000
C661        C  0.46182221  0.77556872  0.64396383    -0.22200
C662        C  0.42034572  0.78728406  0.65050481     0.00800
H663        H  0.53171418  0.78209007  0.67429402     0.14500
H664        H  0.46721671  0.76008718  0.62119894     0.14600
O665        O  0.39909487  0.87283524  0.67767853    -0.83600
O666        O  0.37228185  0.93128665  0.63892504    -0.80600
C667        C  0.32517082  0.92743142  0.64757823     0.99900
O668        O  0.33012551  0.45175491  0.67421926    -0.80700
O669        O  0.39906133  0.51471842  0.73323438    -0.83300
C670        C  0.39992631  0.47901362  0.75377722     1.04400
O671        O  0.42453672  0.95419295  0.74569225    -0.76100
O672        O  0.48310182  0.91596044  0.70933780    -0.76300
C673        C  0.43430831  0.86546740  0.69194358     1.04300
O674        O  0.04766174  0.98053012  0.65986901    -0.83600
O675        O  0.50950427  0.53917074  0.62351675    -0.80700
C676        C  0.48474648  0.56384417  0.61543363     0.99900
O677        O  0.44908123  0.56474711  0.63597640    -0.80700
O678        O  0.51207855  0.63367366  0.69498083    -0.83300
C679        C  0.53636080  0.63861059  0.72162793     1.04400
O680        O  0.53243832  0.59144767  0.73029669    -0.76100
O681        O  0.09080792  0.06457290  0.69153249    -0.76300
C682        C  0.09814807  0.02933076  0.67726313     1.04300
Cr683      Cr  0.45719379  0.95820586  0.65183663     1.93700
Cr684      Cr  0.42576906  0.53803327  0.68460427     1.93200
Cr685      Cr  0.50547038  0.00648470  0.71737441     1.39100
O686        O  0.46229225  0.50141959  0.68460524    -1.21300
N687        N  0.50971883  0.78887977  0.74598458    -0.01700
C688        C  0.51422096  0.74377045  0.73485115     0.00900
C689        C  0.44952205  0.68441967  0.72434576    -0.22000
C690        C  0.41092172  0.70082642  0.72262483    -0.22200
C691        C  0.45738460  0.77167275  0.72764506     0.00800
H692        H  0.43132764  0.63510133  0.71831049     0.14500
H693        H  0.36299992  0.67025164  0.70943012     0.14600
N694        N  0.08689356  0.59642134  0.93153821    -0.01700
C695        C  0.04497850  0.60212339  0.94534484     0.00900
C696        C  0.02035249  0.61682653  0.92121181    -0.22000
C697        C  0.05706712  0.63261419  0.89382140    -0.22200
C698        C  0.09862002  0.62099172  0.90035396     0.00800
H699        H  0.98715174  0.62605758  0.92419690     0.14500
H700        H  0.05164308  0.64806324  0.87104970     0.14600
N701        N  0.36743385  0.87693064  0.93766394    -0.01700
C702        C  0.36174958  0.91886892  0.92385205     0.00900
C703        C  0.34708604  0.94353876  0.94798310    -0.22000
C704        C  0.33129558  0.90681673  0.97537756    -0.23000
C705        C  0.34287713  0.86521724  0.96884821     0.00800
H706        H  0.33787213  0.97676165  0.94499266     0.14500
H707        H  0.31585862  0.91225730  0.99814771     0.14600
O708        O  0.42828200  0.84382740  0.94165272    -0.83600
O709        O  0.98668837  0.81696003  0.98037689    -0.80600
C710        C  0.98268650  0.76976629  0.97168525     0.99900
O711        O  0.00692884  0.77471717  0.94501030    -0.80700
O712        O  0.07004067  0.84366265  0.88599517    -0.83300
C713        C  0.03429690  0.84447435  0.86548304     1.04400
O714        O  0.00948702  0.86909028  0.87357760    -0.76100
O715        O  0.47139424  0.92781152  0.90989694    -0.76300
C716        C  0.42093643  0.87905596  0.92735985     1.04300
O717        O  0.03599956  0.99242520  0.95931133    -0.83600
O718        O  0.09464366  0.95425618  0.99562963    -0.80700
C719        C  0.11919795  0.92938459  0.00372423     0.99900
O720        O  0.11997160  0.89360146  0.98321069    -0.80700
O721        O  0.18892415  0.95668401  0.92418671    -0.83300
C722        C  0.19389254  0.98096420  0.89751752     1.04400
O723        O  0.14674983  0.97702648  0.88884104    -0.76100
O724        O  0.11994700  0.03551523  0.92755779    -0.76300
C725        C  0.08474842  0.54288955  0.94184792     1.04300
Cr726      Cr  0.01364998  0.90192465  0.96740607     1.93700
Cr727      Cr  0.09329391  0.87034627  0.93460211     1.93200
Cr728      Cr  0.06183730  0.95011435  0.90180389     1.39100
O729        O  0.05677484  0.90695370  0.93460421    -1.21300
N730        N  0.34439276  0.95455530  0.87331456    -0.01700
C731        C  0.32724785  0.90225052  0.89170772     0.00900
C732        C  0.25644338  0.85576955  0.89680855    -0.22000
C733        C  0.23998856  0.89432844  0.89504611    -0.22200
C734        C  0.29926031  0.95903553  0.88444183     0.00800
H735        H  0.22591169  0.80784204  0.91005042     0.14500
H736        H  0.19064312  0.87606389  0.90108932     0.14600
O737        O  0.46009966  0.94875024  0.79952144    -0.83600
O738        O  0.05044361  0.58903940  0.78478414    -0.80600
C739        C  0.10534086  0.65278210  0.78104633     0.99900
O740        O  0.16317617  0.67216761  0.78239423    -0.80700
O741        O  0.15727777  0.65468812  0.84804373    -0.83300
C742        C  0.13245548  0.61710232  0.87319436     1.04400
O743        O  0.12766007  0.56790510  0.87288432    -0.76100
O744        O  0.48962334  0.99395903  0.84662674    -0.76300
C745        C  0.44860607  0.96945757  0.82234965     1.04300
O746        O  0.04919701  0.93414249  0.77258464    -0.83600
O747        O  0.12314325  0.07219423  0.74619487    -0.80700
C748        C  0.17235944  0.07704545  0.74585268     0.99900
O749        O  0.20995486  0.60188817  0.77096904    -0.80700
O750        O  0.22752420  0.60783733  0.83661056    -0.83300
C751        C  0.20811631  0.04996669  0.83803618     1.04400
O752        O  0.14438595  0.99506192  0.83435428    -0.76100
O753        O  0.00412036  0.90472522  0.81974952    -0.76300
C754        C  0.02473556  0.89315620  0.79690627     1.04300
Cr755      Cr  0.04802178  0.01230857  0.77651169     1.93700
Cr756      Cr  0.18497594  0.62963460  0.80950824     1.93200
Cr757      Cr  0.06771792  0.99270490  0.84266248     1.39100
O758        O  0.10087679  0.04551034  0.80955719    -1.21300
N759        N  0.02220756  0.83722738  0.80193577    -0.01700
C760        C  0.00279994  0.78627600  0.78128023     0.00900
C761        C  0.98421500  0.73121369  0.79921108    -0.22000
C762        C  0.99695567  0.74924412  0.83062388    -0.22200
C763        C  0.01899066  0.81282407  0.83248306     0.00800
H764        H  0.96622207  0.68317140  0.79030238     0.14500
H765        H  0.98938966  0.71825076  0.85036555     0.14600
N766        N  0.39274158  0.96700354  0.81734407    -0.01700
C767        C  0.34178399  0.94755485  0.83802710     0.00900
C768        C  0.28669719  0.92885285  0.82012429    -0.22000
C769        C  0.30472417  0.94160981  0.78869994    -0.22200
C770        C  0.36831891  0.96373721  0.78680572     0.00800
H771        H  0.23863953  0.91078214  0.82905859     0.14500
H772        H  0.27370838  0.93397031  0.76897319     0.14600
N773        N  0.24969529  0.01150497  0.87519962    -0.01700
C774        C  0.30336839  0.01583625  0.87513739     0.00900
C775        C  0.35199921  0.06568581  0.85290325    -0.22000
C776        C  0.32289999  0.08465746  0.83613517    -0.22200
C777        C  0.25874774  0.04760558  0.84930033     0.00800
H778        H  0.39951705  0.07985136  0.84639887     0.14500
H779        H  0.34419135  0.11825655  0.81543918     0.14600
N780        N  0.56688895  0.69439969  0.74393109    -0.01700
C781        C  0.57111969  0.74802171  0.74403224     0.00900
C782        C  0.12094895  0.79665922  0.76622706    -0.22000
C783        C  0.13998090  0.76757283  0.78295626    -0.22200
C784        C  0.10299195  0.70344095  0.76979463     0.00800
H785        H  0.13504157  0.84414202  0.77274756     0.14500
H786        H  0.17355657  0.78884404  0.80362964     0.14600
N787        N  0.95212208  0.71392257  0.99399131    -0.01700
C788        C  0.94785799  0.66027629  0.99406364     0.00900
C789        C  0.89804320  0.61161602  0.51630051    -0.22000
C790        C  0.37902991  0.64068879  0.53306246    -0.22200
C791        C  0.91602081  0.70484577  0.51988769     0.00800
H792        H  0.88393481  0.56411076  0.52281420     0.14500
H793        H  0.34546688  0.61939453  0.55376673     0.14600
N794        N  0.26942388  0.89692603  0.62526287    -0.01700
C795        C  0.21577343  0.89262581  0.62517157     0.00900
C796        C  0.16716523  0.84275686  0.60298125    -0.22000
C797        C  0.19627967  0.82376665  0.58624599    -0.22200
C798        C  0.26040800  0.86082169  0.59939670     0.00800
H799        H  0.11966897  0.82860499  0.59647029     0.14500
H800        H  0.17501115  0.79015127  0.56558156     0.14600
N801        N  0.67479679  0.45393420  0.12322127    -0.01700
C802        C  0.71993978  0.44949311  0.13435531     0.00900
C803        C  0.77922246  0.01422058  0.14487641    -0.22000
C804        C  0.76275376  0.05277576  0.14660024    -0.22200
C805        C  0.69193523  0.00625795  0.14156092     0.00800
H806        H  0.82853914  0.03245815  0.15092203     0.14500
H807        H  0.79327097  0.10070228  0.15980291     0.14600
N808        N  0.62643287  0.44144461  0.06727456    -0.01700
C809        C  0.67736932  0.46083977  0.08792529     0.00900
C810        C  0.73240540  0.47943302  0.06998804    -0.22000
C811        C  0.71437922  0.46670248  0.03857684    -0.22200
C812        C  0.65082630  0.44466907  0.03672423     0.00800
H813        H  0.78043356  0.49743270  0.07889117     0.14500
H814        H  0.74536174  0.47428226  0.01883150     0.14600
N815        N  0.99678748  0.07104210  0.05187016    -0.01700
C816        C  0.01623688  0.12200921  0.03118288     0.00900
C817        C  0.03492088  0.17711833  0.04908023    -0.22000
C818        C  0.02215957  0.15908923  0.08050633    -0.22200
C819        C  0.00004320  0.09547302  0.08240616     0.00800
H820        H  0.55297684  0.22518661  0.04014132     0.14500
H821        H  0.02978000  0.19011358  0.10023005     0.14600
O822        O  0.01501519  0.00364624  0.06968824    -0.83600
O823        O  0.87478041  0.41334870  0.08443296    -0.80600
C824        C  0.81104458  0.35845039  0.08815644     0.99900
O825        O  0.79163010  0.30057878  0.08680256    -0.80700
O826        O  0.80912633  0.30650564  0.02115398    -0.83300
C827        C  0.84670667  0.33132086  0.99600629     1.04400
O828        O  0.89584301  0.33604952  0.49631963    -0.76100
O829        O  0.96982770  0.47413347  0.02258196    -0.76300
C830        C  0.99432472  0.01515641  0.04686210     1.04300
O831        O  0.52954601  0.41446253  0.09662253    -0.83600
O832        O  0.89154239  0.34055279  0.12300894    -0.80700
C833        C  0.88662490  0.29127589  0.12334577     0.99900
O834        O  0.86177540  0.25367580  0.09822573    -0.80700
O835        O  0.85585160  0.23612503  0.03258254    -0.83300
C836        C  0.41368464  0.25550156  0.03116353     1.04400
O837        O  0.46858926  0.31923837  0.03486013    -0.76100
O838        O  0.55897395  0.45955870  0.04945883    -0.76300
C839        C  0.57052643  0.43892725  0.07230329     1.04300
Cr840      Cr  0.95144302  0.41569981  0.09269757     1.93700
Cr841      Cr  0.83410653  0.27872880  0.05968746     1.93200
Cr842      Cr  0.47101852  0.39597527  0.02654614     1.39100
O843        O  0.91822820  0.36282985  0.05964880    -1.21300
N844        N  0.50923055  0.11937052  0.99589546    -0.01700
C845        C  0.56154694  0.13658144  0.47750333     0.00900
C846        C  0.60797639  0.20741416  0.47242270    -0.22000
C847        C  0.56937386  0.22380847  0.47418067    -0.22200
C848        C  0.50469388  0.16447101  0.98476756     0.00800
H849        H  0.65590111  0.23800178  0.45918932     0.14500
H850        H  0.58759609  0.27315735  0.46814556     0.14600
N851        N  0.65169997  0.53151842  0.18753092    -0.01700
C852        C  0.65744554  0.48962982  0.17373294     0.00900
C853        C  0.67216951  0.46500877  0.19786526    -0.22000
C854        C  0.68796092  0.50173658  0.22523022    -0.22200
C855        C  0.67628928  0.54326164  0.21869392     0.00800
H856        H  0.68141450  0.43181075  0.19488924     0.14500
H857        H  0.70342925  0.49632490  0.24799298     0.14600
N858        N  0.93210144  0.31188654  0.18166823    -0.01700
C859        C  0.97396487  0.30612074  0.19545971     0.00900
C860        C  0.99854122  0.29135545  0.17132433    -0.22000
C861        C  0.96182224  0.27556860  0.14396385    -0.22200
C862        C  0.92034576  0.28728399  0.15050469     0.00800
H863        H  0.03171421  0.28209004  0.17429415     0.14500
H864        H  0.96721687  0.26008698  0.12119893     0.14600
O865        O  0.89909536  0.37283561  0.17767823    -0.83600
O866        O  0.87228240  0.43128712  0.13892489    -0.80600
C867        C  0.82517130  0.42743186  0.14757805     0.99900
O868        O  0.83012519  0.95175464  0.17421936    -0.80700
O869        O  0.89906104  0.01471834  0.23323452    -0.83300
C870        C  0.89992602  0.97901352  0.25377737     1.04400
O871        O  0.92453693  0.45419306  0.24569205    -0.76100
O872        O  0.98310215  0.41596069  0.20933756    -0.76300
C873        C  0.93430869  0.36546773  0.19194329     1.04300
O874        O  0.54766223  0.48053054  0.15986888    -0.83600
O875        O  0.00950380  0.03917034  0.12351692    -0.80700
C876        C  0.98474590  0.06384367  0.11543379     0.99900
O877        O  0.94908064  0.06474657  0.13597654    -0.80700
O878        O  0.01207820  0.13367343  0.19498094    -0.83300
C879        C  0.03636049  0.13861040  0.22162801     1.04400
O880        O  0.03243804  0.09144749  0.23029680    -0.76100
O881        O  0.59080842  0.56457331  0.19153236    -0.76300
C882        C  0.59814855  0.52933116  0.17726299     1.04300
Cr883      Cr  0.95719438  0.45820634  0.15183648     1.93700
Cr884      Cr  0.92576866  0.03803300  0.18460439     1.93200
Cr885      Cr  0.00547074  0.50648495  0.21737426     1.39100
O886        O  0.96229176  0.00141922  0.18460539    -1.21300
N887        N  0.00971869  0.28887979  0.24598452    -0.01700
C888        C  0.01422074  0.24377037  0.23485115     0.00900
C889        C  0.94952180  0.18441958  0.22434580    -0.22000
C890        C  0.91092169  0.20082653  0.22262483    -0.22200
C891        C  0.95738447  0.27167283  0.22764500     0.00800
H892        H  0.93132736  0.13510122  0.21831056     0.14500
H893        H  0.86299958  0.17025154  0.20943003     0.14600
N894        N  0.58689315  0.09642098  0.43153836    -0.01700
C895        C  0.54497823  0.10212315  0.44534502     0.00900
C896        C  0.52035220  0.11682637  0.42121204    -0.22000
C897        C  0.55706688  0.13261410  0.39382163    -0.22200
C898        C  0.59861963  0.12099139  0.40035411     0.00800
H899        H  0.48715144  0.12605729  0.42419716     0.14500
H900        H  0.55164279  0.14806316  0.37104993     0.14600
N901        N  0.86743434  0.37693103  0.43766380    -0.01700
C902        C  0.86175005  0.41886929  0.42385188     0.00900
C903        C  0.84708633  0.44353896  0.44798292    -0.22000
C904        C  0.83129594  0.40681702  0.47537739    -0.23000
C905        C  0.84287758  0.36521760  0.46884806     0.00800
H906        H  0.83787234  0.47676189  0.44499247     0.14500
H907        H  0.81585903  0.41225765  0.49814755     0.14600
O908        O  0.92828256  0.34382792  0.44165270    -0.83600
O909        O  0.48668893  0.31696040  0.48037687    -0.80600
C910        C  0.48268678  0.26976653  0.47168517     0.99900
O911        O  0.50692903  0.27471737  0.44501020    -0.80700
O912        O  0.57004099  0.34366292  0.38599511    -0.83300
C913        C  0.53429718  0.34447455  0.36548299     1.04400
O914        O  0.50948731  0.36909051  0.37357754    -0.76100
O915        O  0.97139469  0.42781182  0.40989678    -0.76300
C916        C  0.92093695  0.37905637  0.42735975     1.04300
O917        O  0.53600008  0.49242562  0.45931123    -0.83600
O918        O  0.59464419  0.45425667  0.49562954    -0.80700
C919        C  0.61919840  0.42938502  0.50372413     0.99900
O920        O  0.61997197  0.39360179  0.48321061    -0.80700
O921        O  0.68892451  0.45668431  0.42418656    -0.83300
C922        C  0.69389283  0.48096439  0.39751733     1.04400
O923        O  0.64675019  0.47702676  0.38884088    -0.76100
O924        O  0.61994741  0.53551563  0.42755757    -0.76300
C925        C  0.58474791  0.04288914  0.44184805     1.04300
Cr926      Cr  0.51365049  0.40192510  0.46740603     1.93700
Cr927      Cr  0.59329424  0.37034658  0.43460203     1.93200
Cr928      Cr  0.56183766  0.45011468  0.40180376     1.39100
O929        O  0.55677529  0.40695413  0.43460414    -1.21300
N930        N  0.84439307  0.45455549  0.37331438    -0.01700
C931        C  0.82724826  0.40225081  0.39170758     0.00900
C932        C  0.75644381  0.35576986  0.39680849    -0.22000
C933        C  0.73998897  0.39432874  0.39504599    -0.22200
C934        C  0.79926067  0.45903578  0.38444167     0.00800
H935        H  0.72591229  0.30784248  0.41005036     0.14500
H936        H  0.69064339  0.37606410  0.40108913     0.14600
O937        O  0.96010020  0.44875063  0.29952126    -0.83600
O938        O  0.55044303  0.08903894  0.28478424    -0.80600
C939        C  0.60534026  0.15278166  0.28104645     0.99900
O940        O  0.66317555  0.17216717  0.28239428    -0.80700
O941        O  0.65727686  0.15468754  0.34804379    -0.83300
C942        C  0.63245497  0.11710194  0.37319447     1.04400
O943        O  0.62765990  0.06790491  0.37288443    -0.76100
O944        O  0.98962350  0.49395913  0.34662660    -0.76300
C945        C  0.94860640  0.46945779  0.32234947     1.04300
O946        O  0.54919730  0.43414281  0.27258454    -0.83600
O947        O  0.62314367  0.57219466  0.24619476    -0.80700
C948        C  0.67235974  0.57704570  0.24585259     0.99900
O949        O  0.70995450  0.10188813  0.27096914    -0.80700
O950        O  0.72752371  0.10783703  0.33661060    -0.83300
C951        C  0.70811668  0.54996700  0.33803605     1.04400
O952        O  0.64438630  0.49506223  0.33435413    -0.76100
O953        O  0.50412059  0.40472545  0.31974942    -0.76300
C954        C  0.52473582  0.39315646  0.29690616     1.04300
Cr955      Cr  0.54802224  0.51230902  0.27651160     1.93700
Cr956      Cr  0.68497534  0.12963427  0.30950833     1.93200
Cr957      Cr  0.56771823  0.49270517  0.34266236     1.39100
O958        O  0.60087717  0.54551064  0.30955710    -1.21300
N959        N  0.52220784  0.33722765  0.30193569    -0.01700
C960        C  0.50279973  0.28627604  0.28128015     0.00900
C961        C  0.48421455  0.23121362  0.29921097    -0.22000
C962        C  0.49695562  0.24924421  0.33062372    -0.22200
C963        C  0.51899098  0.31282432  0.33248297     0.00800
H964        H  0.46622130  0.18317118  0.29030226     0.14500
H965        H  0.48938949  0.21825067  0.35036537     0.14600
N966        N  0.89274172  0.46700348  0.31734388    -0.01700
C967        C  0.84178419  0.44755486  0.33802693     0.00900
C968        C  0.78669730  0.42885282  0.32012413    -0.22000
C969        C  0.80472439  0.44160998  0.28869976    -0.22200
C970        C  0.86831911  0.46373726  0.28680555     0.00800
H971        H  0.73863972  0.41078206  0.32905841     0.14500
H972        H  0.77370867  0.43397055  0.26897304     0.14600
N973        N  0.74969563  0.51150515  0.37519941    -0.01700
C974        C  0.80336868  0.51583640  0.37513715     0.00900
C975        C  0.85199936  0.56568579  0.35290293    -0.22000
C976        C  0.82290017  0.58465742  0.33613485    -0.22200
C977        C  0.75874805  0.54760579  0.34930013     0.00800
H978        H  0.89951731  0.57985139  0.34639853     0.14500
H979        H  0.84419150  0.61825646  0.31543883     0.14600
N980        N  0.06688861  0.19439944  0.24393117    -0.01700
C981        C  0.07111940  0.24802152  0.24403226     0.00900
C982        C  0.62094854  0.29665887  0.26622714    -0.22000
C983        C  0.63998035  0.26757239  0.28295636    -0.22200
C984        C  0.60299140  0.20344055  0.26979476     0.00800
H985        H  0.63504132  0.34414179  0.27274759     0.14500
H986        H  0.67355613  0.28884357  0.30362974     0.14600
N987        N  0.45212228  0.21392273  0.49399124    -0.01700
C988        C  0.44785800  0.16027634  0.49406348     0.00900
C989        C  0.39804297  0.11161600  0.01630032    -0.22000
C990        C  0.87902976  0.14068889  0.03306226    -0.22200
C991        C  0.41602095  0.20484594  0.01988752     0.00800
H992        H  0.38393424  0.06411057  0.02281393     0.14500
H993        H  0.84546663  0.11939467  0.05376646     0.14600
N994        N  0.76942431  0.39692642  0.12526270    -0.01700
C995        C  0.71577378  0.39262606  0.12517145     0.00900
C996        C  0.66716533  0.34275681  0.10298127    -0.22000
C997        C  0.69627968  0.32376646  0.08624601    -0.22200
C998        C  0.76040821  0.36082181  0.09939663     0.00800
H999        H  0.61966898  0.32860475  0.09647041     0.14500
H1000       H  0.67501098  0.29015085  0.06558172     0.14600
N1001       N  0.67479677  0.45393418  0.62322127    -0.01700
C1002       C  0.71993975  0.44949307  0.63435529     0.00900
C1003       C  0.77922238  0.01422055  0.64487637    -0.22000
C1004       C  0.76275376  0.05277579  0.64660018    -0.22200
C1005       C  0.69193520  0.00625798  0.64156087     0.00800
H1006       H  0.82853908  0.03245810  0.65092198     0.14500
H1007       H  0.79327102  0.10070233  0.65980282     0.14600
N1008       N  0.62643288  0.44144461  0.56727457    -0.01700
C1009       C  0.67736933  0.46083982  0.58792529     0.00900
C1010       C  0.73240543  0.47943305  0.56998806    -0.22000
C1011       C  0.71437925  0.46670251  0.53857685    -0.22200
C1012       C  0.65082633  0.44466910  0.53672425     0.00800
H1013       H  0.78043350  0.49743269  0.57889119     0.14500
H1014       H  0.74536180  0.47428230  0.51883153     0.14600
N1015       N  0.99678746  0.07104209  0.55187012    -0.01700
C1016       C  0.01623687  0.12200922  0.53118286     0.00900
C1017       C  0.03492089  0.17711835  0.54908022    -0.22000
C1018       C  0.02215956  0.15908921  0.58050627    -0.22200
C1019       C  0.00004319  0.09547302  0.58240612     0.00800
H1020       H  0.55297687  0.22518664  0.54014131     0.14500
H1021       H  0.02978004  0.19011366  0.60023003     0.14600
O1022       O  0.01501518  0.00364625  0.56968819    -0.83600
O1023       O  0.87478043  0.41334871  0.58443296    -0.80600
C1024       C  0.81104458  0.35845042  0.58815640     0.99900
O1025       O  0.79163009  0.30057880  0.58680258    -0.80700
O1026       O  0.80912638  0.30650569  0.52115406    -0.83300
C1027       C  0.84670668  0.33132087  0.49600634     1.04400
O1028       O  0.89584301  0.33604952  0.99631955    -0.76100
O1029       O  0.96982761  0.47413341  0.52258203    -0.76300
C1030       C  0.99432471  0.01515642  0.54686205     1.04300
O1031       O  0.52954583  0.41446224  0.59662249    -0.83600
O1032       O  0.89154238  0.34055282  0.62300906    -0.80700
C1033       C  0.88662489  0.29127591  0.62334587     0.99900
O1034       O  0.86177537  0.25367581  0.59822585    -0.80700
O1035       O  0.85585161  0.23612500  0.53258273    -0.83300
C1036       C  0.41368466  0.25550154  0.53116364     1.04400
O1037       O  0.46858928  0.31923838  0.53486016    -0.76100
O1038       O  0.55897396  0.45955872  0.54945886    -0.76300
C1039       C  0.57052638  0.43892717  0.57230328     1.04300
Cr1040     Cr  0.95144303  0.41569980  0.59269763     1.93700
Cr1041     Cr  0.83410652  0.27872881  0.55968757     1.93200
Cr1042     Cr  0.47101847  0.39597526  0.52654622     1.39100
O1043       O  0.91822817  0.36282984  0.55964891    -1.21300
N1044       N  0.50923054  0.11937052  0.49589547    -0.01700
C1045       C  0.56154694  0.13658144  0.97750329     0.00900
C1046       C  0.60797637  0.20741416  0.97242264    -0.22000
C1047       C  0.56937384  0.22380846  0.97418062    -0.22200
C1048       C  0.50469389  0.16447103  0.48476758     0.00800
H1049       H  0.65590110  0.23800178  0.95918927     0.14500
H1050       H  0.58759610  0.27315734  0.96814551     0.14600
N1051       N  0.65170006  0.53151847  0.68753092    -0.01700
C1052       C  0.65744552  0.48962977  0.67373297     0.00900
C1053       C  0.67216947  0.46500871  0.69786530    -0.22000
C1054       C  0.68796095  0.50173661  0.72523024    -0.22200
C1055       C  0.67628939  0.54326173  0.71869392     0.00800
H1056       H  0.68141449  0.43181069  0.69488932     0.14500
H1057       H  0.70342929  0.49632498  0.74799302     0.14600
N1058       N  0.93210150  0.31188659  0.68166826    -0.01700
C1059       C  0.97396493  0.30612076  0.69545970     0.00900
C1060       C  0.99854123  0.29135546  0.67132430    -0.22000
C1061       C  0.96182221  0.27556860  0.64396383    -0.22200
C1062       C  0.92034576  0.28728401  0.65050474     0.00800
H1063       H  0.03171422  0.28209004  0.67429408     0.14500
H1064       H  0.96721679  0.26008702  0.62119891     0.14600
O1065       O  0.89909536  0.37283567  0.67767835    -0.83600
O1066       O  0.87228239  0.43128712  0.63892484    -0.80600
C1067       C  0.82517128  0.42743185  0.64757799     0.99900
O1068       O  0.83012515  0.95175462  0.67421945    -0.80700
O1069       O  0.89906107  0.01471838  0.73323451    -0.83300
C1070       C  0.89992602  0.97901354  0.75377737     1.04400
O1071       O  0.92453703  0.45419306  0.74569211    -0.76100
O1072       O  0.98310214  0.41596066  0.70933766    -0.76300
C1073       C  0.93430869  0.36546773  0.69194341     1.04300
O1074       O  0.54766218  0.48053043  0.65986895    -0.83600
O1075       O  0.00950376  0.03917030  0.62351688    -0.80700
C1076       C  0.98474588  0.06384365  0.61543374     0.99900
O1077       O  0.94908061  0.06474654  0.63597650    -0.80700
O1078       O  0.01207827  0.13367343  0.69498092    -0.83300
C1079       C  0.03636050  0.13861040  0.72162801     1.04400
O1080       O  0.03243798  0.09144746  0.73029681    -0.76100
O1081       O  0.59080849  0.56457336  0.69153232    -0.76300
C1082       C  0.59814859  0.52933116  0.67726298     1.04300
Cr1083     Cr  0.95719435  0.45820629  0.65183648     1.93700
Cr1084     Cr  0.92576866  0.03803301  0.68460439     1.93200
Cr1085     Cr  0.00547074  0.50648495  0.71737425     1.39100
O1086       O  0.96229176  0.00141923  0.68460538    -1.21300
N1087       N  0.00971865  0.28887973  0.74598453    -0.01700
C1088       C  0.01422072  0.24377034  0.73485114     0.00900
C1089       C  0.94952181  0.18441959  0.72434575    -0.22000
C1090       C  0.91092169  0.20082654  0.72262478    -0.22200
C1091       C  0.95738448  0.27167282  0.72764498     0.00800
H1092       H  0.93132739  0.13510125  0.71831049     0.14500
H1093       H  0.86299960  0.17025157  0.70942997     0.14600
N1094       N  0.58689317  0.09642096  0.93153829    -0.01700
C1095       C  0.54497825  0.10212316  0.94534496     0.00900
C1096       C  0.52035222  0.11682638  0.92121198    -0.22000
C1097       C  0.55706690  0.13261410  0.89382156    -0.22200
C1098       C  0.59861967  0.12099140  0.90035404     0.00800
H1099       H  0.48715145  0.12605730  0.92419711     0.14500
H1100       H  0.55164279  0.14806317  0.87104987     0.14600
N1101       N  0.86743438  0.37693109  0.93766383    -0.01700
C1102       C  0.86175007  0.41886933  0.92385192     0.00900
C1103       C  0.84708631  0.44353897  0.94798295    -0.22000
C1104       C  0.83129594  0.40681707  0.97537747    -0.23000
C1105       C  0.84287761  0.36521766  0.96884807     0.00800
H1106       H  0.83787233  0.47676187  0.94499247     0.14500
H1107       H  0.81585911  0.41225768  0.99814754     0.14600
O1108       O  0.92828257  0.34382792  0.94165268    -0.83600
O1109       O  0.48668891  0.31696041  0.98037684    -0.80600
C1110       C  0.48268681  0.26976655  0.97168513     0.99900
O1111       O  0.50692912  0.27471742  0.94501020    -0.80700
O1112       O  0.57004104  0.34366300  0.88599507    -0.83300
C1113       C  0.53429732  0.34447473  0.86548294     1.04400
O1114       O  0.50948739  0.36909061  0.87357750    -0.76100
O1115       O  0.97139467  0.42781182  0.90989677    -0.76300
C1116       C  0.92093698  0.37905642  0.92735977     1.04300
O1117       O  0.53600008  0.49242561  0.95931122    -0.83600
O1118       O  0.59464420  0.45425669  0.99562949    -0.80700
C1119       C  0.61919841  0.42938503  0.00372409     0.99900
O1120       O  0.61997201  0.39360184  0.98321057    -0.80700
O1121       O  0.68892462  0.45668420  0.92418651    -0.83300
C1122       C  0.69389291  0.48096440  0.89751732     1.04400
O1123       O  0.64675030  0.47702686  0.88884093    -0.76100
O1124       O  0.61994741  0.53551565  0.92755758    -0.76300
C1125       C  0.58474800  0.04288917  0.94184804     1.04300
Cr1126     Cr  0.51365050  0.40192509  0.96740599     1.93700
Cr1127     Cr  0.59329429  0.37034660  0.93460199     1.93200
Cr1128     Cr  0.56183768  0.45011472  0.90180374     1.39100
O1129       O  0.55677530  0.40695414  0.93460409    -1.21300
N1130       N  0.84439315  0.45455551  0.87331438    -0.01700
C1131       C  0.82724833  0.40225084  0.89170760     0.00900
C1132       C  0.75644389  0.35576988  0.89680848    -0.22000
C1133       C  0.73998907  0.39432873  0.89504594    -0.22200
C1134       C  0.79926071  0.45903578  0.88444164     0.00800
H1135       H  0.72591233  0.30784249  0.91005045     0.14500
H1136       H  0.69064332  0.37606398  0.90108911     0.14600
O1137       O  0.96010024  0.44875065  0.79952124    -0.83600
O1138       O  0.55044305  0.08903895  0.78478424    -0.80600
C1139       C  0.60534029  0.15278167  0.78104645     0.99900
O1140       O  0.66317562  0.17216717  0.78239424    -0.80700
O1141       O  0.65727716  0.15468764  0.84804375    -0.83300
C1142       C  0.63245505  0.11710193  0.87319442     1.04400
O1143       O  0.62765986  0.06790484  0.87288442    -0.76100
O1144       O  0.98962357  0.49395915  0.84662658    -0.76300
C1145       C  0.94860642  0.46945777  0.82234946     1.04300
O1146       O  0.54919731  0.43414280  0.77258448    -0.83600
O1147       O  0.62314371  0.57219470  0.74619473    -0.80700
C1148       C  0.67235978  0.57704574  0.74585258     0.99900
O1149       O  0.70995462  0.10188812  0.77096909    -0.80700
O1150       O  0.72752373  0.10783701  0.83661068    -0.83300
C1151       C  0.70811668  0.54996699  0.83803603     1.04400
O1152       O  0.64438631  0.49506223  0.83435413    -0.76100
O1153       O  0.50412073  0.40472553  0.81974938    -0.76300
C1154       C  0.52473590  0.39315650  0.79690612     1.04300
Cr1155     Cr  0.54802225  0.51230903  0.77651157     1.93700
Cr1156     Cr  0.68497550  0.12963429  0.80950829     1.93200
Cr1157     Cr  0.56771827  0.49270520  0.84266235     1.39100
O1158       O  0.60087716  0.54551067  0.80955709    -1.21300
N1159       N  0.52220789  0.33722765  0.80193566    -0.01700
C1160       C  0.50279971  0.28627599  0.78128016     0.00900
C1161       C  0.48421457  0.23121364  0.79921104    -0.22000
C1162       C  0.49695563  0.24924426  0.83062382    -0.22200
C1163       C  0.51899104  0.31282441  0.83248296     0.00800
H1164       H  0.46622131  0.18317113  0.79030238     0.14500
H1165       H  0.48938958  0.21825093  0.85036548     0.14600
N1166       N  0.89274176  0.46700346  0.81734388    -0.01700
C1167       C  0.84178420  0.44755482  0.83802693     0.00900
C1168       C  0.78669734  0.42885283  0.82012412    -0.22000
C1169       C  0.80472449  0.44161003  0.78869975    -0.22200
C1170       C  0.86831920  0.46373734  0.78680555     0.00800
H1171       H  0.73863975  0.41078208  0.82905836     0.14500
H1172       H  0.77370880  0.43397060  0.76897303     0.14600
N1173       N  0.74969561  0.51150508  0.87519936    -0.01700
C1174       C  0.80336867  0.51583636  0.87513709     0.00900
C1175       C  0.85199937  0.56568580  0.85290291    -0.22000
C1176       C  0.82290023  0.58465755  0.83613490    -0.22200
C1177       C  0.75874805  0.54760580  0.84930011     0.00800
H1178       H  0.89951730  0.57985137  0.84639850     0.14500
H1179       H  0.84419165  0.61825674  0.81543891     0.14600
N1180       N  0.06688860  0.19439945  0.74393116    -0.01700
C1181       C  0.07111942  0.24802154  0.74403222     0.00900
C1182       C  0.62094856  0.29665890  0.76622710    -0.22000
C1183       C  0.63998035  0.26757242  0.78295634    -0.22200
C1184       C  0.60299135  0.20344054  0.76979478     0.00800
H1185       H  0.63504135  0.34414183  0.77274752     0.14500
H1186       H  0.67355620  0.28884368  0.80362970     0.14600
N1187       N  0.45212225  0.21392272  0.99399119    -0.01700
C1188       C  0.44785800  0.16027635  0.99406346     0.00900
C1189       C  0.39804289  0.11161589  0.51630028    -0.22000
C1190       C  0.87902955  0.14068868  0.53306225    -0.22200
C1191       C  0.41602094  0.20484589  0.51988759     0.00800
H1192       H  0.38393418  0.06411043  0.52281384     0.14500
H1193       H  0.84546636  0.11939429  0.55376641     0.14600
N1194       N  0.76942425  0.39692636  0.62526266    -0.01700
C1195       C  0.71577369  0.39262597  0.62517143     0.00900
C1196       C  0.66716527  0.34275675  0.60298122    -0.22000
C1197       C  0.69627967  0.32376645  0.58624594    -0.22200
C1198       C  0.76040820  0.36082183  0.59939656     0.00800
H1199       H  0.61966893  0.32860469  0.59647033     0.14500
H1200       H  0.67501102  0.29015088  0.56558163     0.14600
N1201       N  0.67479656  0.95393403  0.12322141    -0.01700
C1202       C  0.71993955  0.94949293  0.13435545     0.00900
C1203       C  0.77922277  0.51422080  0.14487617    -0.22000
C1204       C  0.76275406  0.55277596  0.14659998    -0.22200
C1205       C  0.69193552  0.50625820  0.14156072     0.00800
H1206       H  0.82853942  0.53245838  0.15092175     0.14500
H1207       H  0.79327137  0.60070254  0.15980261     0.14600
N1208       N  0.62643251  0.94144428  0.06727469    -0.01700
C1209       C  0.67736900  0.96083950  0.08792540     0.00900
C1210       C  0.73240507  0.97943269  0.06998815    -0.22000
C1211       C  0.71437882  0.96670205  0.03857696    -0.22200
C1212       C  0.65082588  0.94466862  0.03672436     0.00800
H1213       H  0.78043325  0.99743247  0.07889128     0.14500
H1214       H  0.74536136  0.97428189  0.01883161     0.14600
N1215       N  0.99678794  0.57104236  0.05186998    -0.01700
C1216       C  0.01623740  0.62200953  0.03118271     0.00900
C1217       C  0.03492147  0.67711868  0.04908005    -0.22000
C1218       C  0.02216024  0.65908966  0.08050610    -0.22200
C1219       C  0.00004379  0.59547343  0.08240598     0.00800
H1220       H  0.55297774  0.72518713  0.04014108     0.14500
H1221       H  0.02978077  0.69011419  0.10022982     0.14600
O1222       O  0.01501538  0.50364638  0.06968811    -0.83600
O1223       O  0.87478013  0.91334837  0.08443311    -0.80600
C1224       C  0.81104425  0.85845009  0.08815651     0.99900
O1225       O  0.79162970  0.80057843  0.08680265    -0.80700
O1226       O  0.80912589  0.80650521  0.02115416    -0.83300
C1227       C  0.84670631  0.83132060  0.99600648     1.04400
O1228       O  0.89584280  0.83604945  0.49631981    -0.76100
O1229       O  0.96982733  0.97413334  0.02258216    -0.76300
C1230       C  0.99432505  0.51515659  0.04686191     1.04300
O1231       O  0.52954567  0.91446224  0.09662265    -0.83600
O1232       O  0.89154226  0.84055276  0.12300916    -0.80700
C1233       C  0.88662482  0.79127589  0.12334597     0.99900
O1234       O  0.86177533  0.75367579  0.09822594    -0.80700
O1235       O  0.85585143  0.73612475  0.03258281    -0.83300
C1236       C  0.41368452  0.75550143  0.03116371     1.04400
O1237       O  0.46858907  0.81923834  0.03486019    -0.76100
O1238       O  0.55897371  0.95955861  0.04945901    -0.76300
C1239       C  0.57052609  0.93892699  0.07230341     1.04300
Cr1240     Cr  0.95144280  0.91569964  0.09269774     1.93700
Cr1241     Cr  0.83410628  0.77872854  0.05968766     1.93200
Cr1242     Cr  0.47101827  0.89597524  0.02654633     1.39100
O1243       O  0.91822797  0.86282964  0.05964900    -1.21300
N1244       N  0.50923074  0.61937065  0.99589535    -0.01700
C1245       C  0.56154712  0.63658176  0.47750309     0.00900
C1246       C  0.60797631  0.70741442  0.47242243    -0.22000
C1247       C  0.56937369  0.72380857  0.47418050    -0.22200
C1248       C  0.50469388  0.66447107  0.98476754     0.00800
H1249       H  0.65590117  0.73800224  0.45918903     0.14500
H1250       H  0.58759586  0.77315749  0.46814544     0.14600
N1251       N  0.65169960  0.03151809  0.18753105    -0.01700
C1252       C  0.65744512  0.98962944  0.17373312     0.00900
C1253       C  0.67216915  0.96500843  0.19786546    -0.22000
C1254       C  0.68796060  0.00173640  0.22523043    -0.22200
C1255       C  0.67628908  0.04326155  0.21869403     0.00800
H1256       H  0.68141424  0.93181059  0.19488952     0.14500
H1257       H  0.70342884  0.99632479  0.24799315     0.14600
N1258       N  0.93210136  0.81188644  0.18166836    -0.01700
C1259       C  0.97396485  0.80612066  0.19545977     0.00900
C1260       C  0.99854122  0.79135546  0.17132434    -0.22000
C1261       C  0.96182224  0.77556871  0.14396387    -0.22200
C1262       C  0.92034576  0.78728405  0.15050480     0.00800
H1263       H  0.03171424  0.78209007  0.17429410     0.14500
H1264       H  0.96721684  0.76008716  0.12119894     0.14600
O1265       O  0.89909492  0.87283523  0.17767845    -0.83600
O1266       O  0.87228188  0.93128666  0.13892499    -0.80600
C1267       C  0.82517085  0.92743145  0.14757812     0.99900
O1268       O  0.83012552  0.45175486  0.17421930    -0.80700
O1269       O  0.89906123  0.51471841  0.23323440    -0.83300
C1270       C  0.89992626  0.47901361  0.25377721     1.04400
O1271       O  0.92453657  0.95419287  0.24569225    -0.76100
O1272       O  0.98310171  0.91596039  0.20933781    -0.76300
C1273       C  0.93430832  0.86546742  0.19194351     1.04300
O1274       O  0.54766177  0.98053011  0.15986902    -0.83600
O1275       O  0.00950443  0.53917082  0.12351678    -0.80700
C1276       C  0.98474657  0.56384419  0.11543366     0.99900
O1277       O  0.94908129  0.56474709  0.13597644    -0.80700
O1278       O  0.01207842  0.63367363  0.19498091    -0.83300
C1279       C  0.03636083  0.63861063  0.22162796     1.04400
O1280       O  0.03243847  0.59144775  0.23029670    -0.76100
O1281       O  0.59080800  0.06457292  0.19153247    -0.76300
C1282       C  0.59814813  0.02933077  0.17726312     1.04300
Cr1283     Cr  0.95719382  0.95820588  0.15183661     1.93700
Cr1284     Cr  0.92576900  0.53803327  0.18460431     1.93200
Cr1285     Cr  0.00547028  0.00648464  0.21737441     1.39100
O1286       O  0.96229225  0.50141962  0.18460527    -1.21300
N1287       N  0.00971879  0.78887977  0.24598458    -0.01700
C1288       C  0.01422084  0.74377039  0.23485116     0.00900
C1289       C  0.94952191  0.68441960  0.22434582    -0.22000
C1290       C  0.91092163  0.70082641  0.22262487    -0.22200
C1291       C  0.95738457  0.77167278  0.22764507     0.00800
H1292       H  0.93132749  0.63510124  0.21831056     0.14500
H1293       H  0.86299983  0.67025164  0.20943014     0.14600
N1294       N  0.58689351  0.59642131  0.43153818    -0.01700
C1295       C  0.54497851  0.60212340  0.44534480     0.00900
C1296       C  0.52035233  0.61682646  0.42121180    -0.22000
C1297       C  0.55706702  0.63261417  0.39382141    -0.22200
C1298       C  0.59861985  0.62099162  0.40035390     0.00800
H1299       H  0.48715160  0.62605735  0.42419693     0.14500
H1300       H  0.55164293  0.64806325  0.37104966     0.14600
N1301       N  0.86743392  0.87693072  0.43766396    -0.01700
C1302       C  0.86174953  0.91886888  0.42385207     0.00900
C1303       C  0.84708574  0.94353851  0.44798311    -0.22000
C1304       C  0.83129551  0.90681665  0.47537762    -0.23000
C1305       C  0.84287720  0.86521729  0.46884822     0.00800
H1306       H  0.83787170  0.97676126  0.44499266     0.14500
H1307       H  0.81585870  0.91225725  0.49814773     0.14600
O1308       O  0.92828198  0.84382744  0.44165277    -0.83600
O1309       O  0.48668839  0.81696003  0.48037695    -0.80600
C1310       C  0.48268639  0.76976623  0.47168525     0.99900
O1311       O  0.50692860  0.77471707  0.44501027    -0.80700
O1312       O  0.57004066  0.84366265  0.38599514    -0.83300
C1313       C  0.53429688  0.84447435  0.36548304     1.04400
O1314       O  0.50948696  0.86909021  0.37357763    -0.76100
O1315       O  0.97139417  0.92781144  0.40989690    -0.76300
C1316       C  0.92093642  0.87905596  0.42735986     1.04300
O1317       O  0.53599958  0.99242519  0.45931137    -0.83600
O1318       O  0.59464367  0.95425616  0.49562967    -0.80700
C1319       C  0.61919797  0.92938458  0.50372422     0.99900
O1320       O  0.61997160  0.89360144  0.48321066    -0.80700
O1321       O  0.68892414  0.95668386  0.42418665    -0.83300
C1322       C  0.69389260  0.98096422  0.39751751     1.04400
O1323       O  0.64674989  0.97702658  0.38884107    -0.76100
O1324       O  0.61994685  0.03551520  0.42755773    -0.76300
C1325       C  0.58474845  0.54288957  0.44184789     1.04300
Cr1326     Cr  0.51365004  0.90192467  0.46740610     1.93700
Cr1327     Cr  0.59329386  0.87034617  0.43460208     1.93200
Cr1328     Cr  0.56183724  0.95011430  0.40180389     1.39100
O1329       O  0.55677492  0.90695374  0.43460423    -1.21300
N1330       N  0.84439286  0.95455530  0.37331456    -0.01700
C1331       C  0.82724791  0.90225050  0.39170773     0.00900
C1332       C  0.75644342  0.85576952  0.39680854    -0.22000
C1333       C  0.73998864  0.89432841  0.39504599    -0.22200
C1334       C  0.79926040  0.95903555  0.38444182     0.00800
H1335       H  0.72591173  0.80784206  0.41005046     0.14500
H1336       H  0.69064295  0.87606374  0.40108912     0.14600
O1337       O  0.96009970  0.94875020  0.29952136    -0.83600
O1338       O  0.55044370  0.58903942  0.28478419    -0.80600
C1339       C  0.60534090  0.65278210  0.28104633     0.99900
O1340       O  0.66317620  0.67216758  0.28239412    -0.80700
O1341       O  0.65727751  0.65468809  0.34804370    -0.83300
C1342       C  0.63245530  0.61710226  0.37319432     1.04400
O1343       O  0.62766017  0.56790522  0.37288426    -0.76100
O1344       O  0.98962338  0.99395902  0.34662666    -0.76300
C1345       C  0.94860610  0.96945752  0.32234960     1.04300
O1346       O  0.54919659  0.93414230  0.27258459    -0.83600
O1347       O  0.62314306  0.07219413  0.24619484    -0.80700
C1348       C  0.67235931  0.07704545  0.24585269     0.99900
O1349       O  0.70995495  0.60188827  0.27096904    -0.80700
O1350       O  0.72752417  0.60783736  0.33661059    -0.83300
C1351       C  0.70811629  0.04996670  0.33803618     1.04400
O1352       O  0.64438593  0.99506185  0.33435432    -0.76100
O1353       O  0.50412016  0.90472518  0.31974952    -0.76300
C1354       C  0.52473527  0.89315609  0.29690626     1.04300
Cr1355     Cr  0.54802162  0.01230855  0.27651169     1.93700
Cr1356     Cr  0.68497590  0.62963461  0.30950823     1.93200
Cr1357     Cr  0.56771790  0.99270487  0.34266249     1.39100
O1358       O  0.60087667  0.04551026  0.30955720    -1.21300
N1359       N  0.52220737  0.83722732  0.30193578    -0.01700
C1360       C  0.50279996  0.78627601  0.28128024     0.00900
C1361       C  0.48421503  0.73121376  0.29921110    -0.22000
C1362       C  0.49695567  0.74924417  0.33062389    -0.22200
C1363       C  0.51899061  0.81282410  0.33248307     0.00800
H1364       H  0.46622215  0.68317137  0.29030241     0.14500
H1365       H  0.48938976  0.71825085  0.35036556     0.14600
N1366       N  0.89274163  0.96700352  0.31734404    -0.01700
C1367       C  0.84178404  0.94755481  0.33802711     0.00900
C1368       C  0.78669725  0.92885283  0.32012428    -0.22000
C1369       C  0.80472423  0.94160982  0.28869997    -0.22200
C1370       C  0.86831895  0.96373728  0.28680572     0.00800
H1371       H  0.73863950  0.91078208  0.32905860     0.14500
H1372       H  0.77370830  0.93397025  0.26897316     0.14600
N1373       N  0.74969539  0.01150508  0.37519960    -0.01700
C1374       C  0.80336848  0.01583629  0.37513735     0.00900
C1375       C  0.85199923  0.06568574  0.35290315    -0.22000
C1376       C  0.82289999  0.08465741  0.33613507    -0.22200
C1377       C  0.75874782  0.04760568  0.34930033     0.00800
H1378       H  0.89951705  0.07985133  0.34639875     0.14500
H1379       H  0.84419130  0.11825640  0.31543913     0.14600
N1380       N  0.06688880  0.69439961  0.24393113    -0.01700
C1381       C  0.07111958  0.74802167  0.24403222     0.00900
C1382       C  0.62094913  0.79665932  0.26622696    -0.22000
C1383       C  0.63998104  0.76757292  0.28295615    -0.22200
C1384       C  0.60299195  0.70344094  0.26979466     0.00800
H1385       H  0.63504183  0.84414218  0.27274742     0.14500
H1386       H  0.67355691  0.78884427  0.30362956     0.14600
N1387       N  0.45212207  0.71392257  0.49399133    -0.01700
C1388       C  0.44785793  0.66027625  0.49406357     0.00900
C1389       C  0.39804318  0.61161603  0.01630056    -0.22000
C1390       C  0.87902997  0.64068882  0.03306251    -0.22200
C1391       C  0.41602086  0.70484580  0.01988771     0.00800
H1392       H  0.38393468  0.56411071  0.02281426     0.14500
H1393       H  0.84546698  0.61939459  0.05376680     0.14600
N1394       N  0.76942387  0.89692601  0.12526280    -0.01700
C1395       C  0.71577349  0.89262585  0.12517151     0.00900
C1396       C  0.66716516  0.84275681  0.10298124    -0.22000
C1397       C  0.69627955  0.82376655  0.08624598    -0.22200
C1398       C  0.76040791  0.86082160  0.09939664     0.00800
H1399       H  0.61966893  0.82860493  0.09647032     0.14500
H1400       H  0.67501094  0.79015107  0.06558157     0.14600
N1401       N  0.67479650  0.95393403  0.62322139    -0.01700
C1402       C  0.71993943  0.94949288  0.63435546     0.00900
C1403       C  0.77922274  0.51422075  0.64487616    -0.22000
C1404       C  0.76275406  0.55277590  0.64660008    -0.22200
C1405       C  0.69193554  0.50625817  0.64156077     0.00800
H1406       H  0.82853940  0.53245830  0.65092177     0.14500
H1407       H  0.79327128  0.60070234  0.65980284     0.14600
N1408       N  0.62643250  0.94144427  0.56727466    -0.01700
C1409       C  0.67736898  0.96083949  0.58792537     0.00900
C1410       C  0.73240504  0.97943266  0.56998814    -0.22000
C1411       C  0.71437886  0.96670207  0.53857691    -0.22200
C1412       C  0.65082590  0.94466863  0.53672433     0.00800
H1413       H  0.78043319  0.99743241  0.57889129     0.14500
H1414       H  0.74536130  0.97428186  0.51883160     0.14600
N1415       N  0.99678796  0.57104238  0.55186997    -0.01700
C1416       C  0.01623740  0.62200953  0.53118268     0.00900
C1417       C  0.03492144  0.67711865  0.54908005    -0.22000
C1418       C  0.02216023  0.65908965  0.58050610    -0.22200
C1419       C  0.00004381  0.59547345  0.58240597     0.00800
H1420       H  0.55297772  0.72518716  0.54014108     0.14500
H1421       H  0.02978073  0.69011415  0.60022987     0.14600
O1422       O  0.01501544  0.50364640  0.56968814    -0.83600
O1423       O  0.87478014  0.91334842  0.58443312    -0.80600
C1424       C  0.81104426  0.85845012  0.58815653     0.99900
O1425       O  0.79162969  0.80057847  0.58680259    -0.80700
O1426       O  0.80912585  0.80650517  0.52115414    -0.83300
C1427       C  0.84670633  0.83132060  0.49600649     1.04400
O1428       O  0.89584280  0.83604949  0.99631979    -0.76100
O1429       O  0.96982734  0.97413335  0.52258210    -0.76300
C1430       C  0.99432507  0.51515660  0.54686194     1.04300
O1431       O  0.52954566  0.91446218  0.59662264    -0.83600
O1432       O  0.89154227  0.84055280  0.62300914    -0.80700
C1433       C  0.88662483  0.79127592  0.62334595     0.99900
O1434       O  0.86177535  0.75367583  0.59822592    -0.80700
O1435       O  0.85585142  0.73612471  0.53258287    -0.83300
C1436       C  0.41368451  0.75550143  0.53116375     1.04400
O1437       O  0.46858907  0.81923834  0.53486026    -0.76100
O1438       O  0.55897371  0.95955867  0.54945903    -0.76300
C1439       C  0.57052609  0.93892699  0.57230340     1.04300
Cr1440     Cr  0.95144280  0.91569965  0.59269770     1.93700
Cr1441     Cr  0.83410627  0.77872855  0.55968764     1.93200
Cr1442     Cr  0.47101830  0.89597525  0.52654632     1.39100
O1443       O  0.91822796  0.86282966  0.55964896    -1.21300
N1444       N  0.50923071  0.61937065  0.49589531    -0.01700
C1445       C  0.56154714  0.63658173  0.97750313     0.00900
C1446       C  0.60797642  0.70741442  0.97242247    -0.22000
C1447       C  0.56937377  0.72380856  0.97418058    -0.22200
C1448       C  0.50469382  0.66447106  0.48476750     0.00800
H1449       H  0.65590101  0.73800201  0.95918900     0.14500
H1450       H  0.58759596  0.77315751  0.96814550     0.14600
N1451       N  0.65169959  0.03151811  0.68753102    -0.01700
C1452       C  0.65744513  0.98962949  0.67373308     0.00900
C1453       C  0.67216914  0.96500844  0.69786542    -0.22000
C1454       C  0.68796059  0.00173643  0.72523034    -0.22200
C1455       C  0.67628907  0.04326155  0.71869402     0.00800
H1456       H  0.68141423  0.93181059  0.69488948     0.14500
H1457       H  0.70342894  0.99632482  0.74799315     0.14600
N1458       N  0.93210136  0.81188643  0.68166837    -0.01700
C1459       C  0.97396487  0.80612066  0.69545976     0.00900
C1460       C  0.99854123  0.79135548  0.67132432    -0.22000
C1461       C  0.96182223  0.77556872  0.64396383    -0.22200
C1462       C  0.92034575  0.78728408  0.65050480     0.00800
H1463       H  0.03171423  0.78209007  0.67429404     0.14500
H1464       H  0.96721675  0.76008720  0.62119894     0.14600
O1465       O  0.89909489  0.87283522  0.67767853    -0.83600
O1466       O  0.87228183  0.93128661  0.63892506    -0.80600
C1467       C  0.82517079  0.92743140  0.64757823     0.99900
O1468       O  0.83012551  0.45175485  0.67421925    -0.80700
O1469       O  0.89906134  0.51471840  0.73323439    -0.83300
C1470       C  0.89992636  0.47901363  0.75377723     1.04400
O1471       O  0.92453659  0.95419288  0.74569225    -0.76100
O1472       O  0.98310180  0.91596044  0.70933781    -0.76300
C1473       C  0.93430829  0.86546739  0.69194358     1.04300
O1474       O  0.54766175  0.98053011  0.65986900    -0.83600
O1475       O  0.00950441  0.53917078  0.62351675    -0.80700
C1476       C  0.98474657  0.56384419  0.61543363     0.99900
O1477       O  0.94908128  0.56474708  0.63597640    -0.80700
O1478       O  0.01207841  0.63367359  0.69498087    -0.83300
C1479       C  0.03636083  0.63861061  0.72162792     1.04400
O1480       O  0.03243847  0.59144773  0.73029666    -0.76100
O1481       O  0.59080798  0.06457291  0.69153248    -0.76300
C1482       C  0.59814810  0.02933077  0.67726312     1.04300
Cr1483     Cr  0.95719379  0.95820585  0.65183663     1.93700
Cr1484     Cr  0.92576901  0.53803325  0.68460427     1.93200
Cr1485     Cr  0.00547029  0.00648466  0.71737442     1.39100
O1486       O  0.96229225  0.50141961  0.68460524    -1.21300
N1487       N  0.00971880  0.78887976  0.74598458    -0.01700
C1488       C  0.01422089  0.74377040  0.73485116     0.00900
C1489       C  0.94952196  0.68441964  0.72434577    -0.22000
C1490       C  0.91092166  0.70082643  0.72262483    -0.22200
C1491       C  0.95738458  0.77167277  0.72764506     0.00800
H1492       H  0.93132753  0.63510128  0.71831049     0.14500
H1493       H  0.86299988  0.67025169  0.70943008     0.14600
N1494       N  0.58689354  0.59642134  0.93153821    -0.01700
C1495       C  0.54497851  0.60212342  0.94534485     0.00900
C1496       C  0.52035241  0.61682652  0.92121183    -0.22000
C1497       C  0.55706703  0.63261418  0.89382142    -0.22200
C1498       C  0.59861989  0.62099165  0.90035395     0.00800
H1499       H  0.48715175  0.62605757  0.92419693     0.14500
H1500       H  0.55164297  0.64806326  0.87104972     0.14600
N1501       N  0.86743389  0.87693073  0.93766394    -0.01700
C1502       C  0.86174958  0.91886895  0.92385205     0.00900
C1503       C  0.84708593  0.94353874  0.94798309    -0.22000
C1504       C  0.83129559  0.90681674  0.97537756    -0.23000
C1505       C  0.84287715  0.86521729  0.96884821     0.00800
H1506       H  0.83787197  0.97676146  0.94499268     0.14500
H1507       H  0.81585867  0.91225733  0.99814772     0.14600
O1508       O  0.92828192  0.84382738  0.94165274    -0.83600
O1509       O  0.48668835  0.81696005  0.98037691    -0.80600
C1510       C  0.48268641  0.76976628  0.97168524     0.99900
O1511       O  0.50692870  0.77471718  0.94501027    -0.80700
O1512       O  0.57004069  0.84366269  0.88599517    -0.83300
C1513       C  0.53429689  0.84447433  0.86548304     1.04400
O1514       O  0.50948698  0.86909024  0.87357760    -0.76100
O1515       O  0.97139423  0.92781150  0.90989694    -0.76300
C1516       C  0.92093640  0.87905595  0.92735985     1.04300
O1517       O  0.53599958  0.99242519  0.95931133    -0.83600
O1518       O  0.59464368  0.95425618  0.99562964    -0.80700
C1519       C  0.61919795  0.92938458  0.00372424     0.99900
O1520       O  0.61997160  0.89360144  0.98321070    -0.80700
O1521       O  0.68892423  0.95668399  0.92418671    -0.83300
C1522       C  0.69389262  0.98096419  0.89751752     1.04400
O1523       O  0.64674990  0.97702647  0.88884104    -0.76100
O1524       O  0.61994703  0.03551523  0.92755779    -0.76300
C1525       C  0.58474845  0.54288957  0.94184793     1.04300
Cr1526     Cr  0.51365003  0.90192467  0.96740606     1.93700
Cr1527     Cr  0.59329393  0.87034626  0.93460211     1.93200
Cr1528     Cr  0.56183733  0.95011435  0.90180389     1.39100
O1529       O  0.55677493  0.90695374  0.93460421    -1.21300
N1530       N  0.84439285  0.95455530  0.87331455    -0.01700
C1531       C  0.82724793  0.90225053  0.89170771     0.00900
C1532       C  0.75644346  0.85576955  0.89680854    -0.22000
C1533       C  0.73998870  0.89432846  0.89504609    -0.22200
C1534       C  0.79926039  0.95903554  0.88444183     0.00800
H1535       H  0.72591177  0.80784203  0.91005041     0.14500
H1536       H  0.69064308  0.87606383  0.90108932     0.14600
O1537       O  0.96009976  0.94875022  0.79952143    -0.83600
O1538       O  0.55044367  0.58903939  0.78478413    -0.80600
C1539       C  0.60534089  0.65278209  0.78104631     0.99900
O1540       O  0.66317620  0.67216763  0.78239421    -0.80700
O1541       O  0.65727747  0.65468803  0.84804371    -0.83300
C1542       C  0.63245532  0.61710228  0.87319435     1.04400
O1543       O  0.62766012  0.56790519  0.87288430    -0.76100
O1544       O  0.98962334  0.99395901  0.84662673    -0.76300
C1545       C  0.94860613  0.96945756  0.82234963     1.04300
O1546       O  0.54919672  0.93414243  0.77258463    -0.83600
O1547       O  0.62314309  0.07219417  0.74619486    -0.80700
C1548       C  0.67235932  0.07704543  0.74585268     0.99900
O1549       O  0.70995488  0.60188820  0.77096906    -0.80700
O1550       O  0.72752417  0.60783735  0.83661056    -0.83300
C1551       C  0.70811632  0.04996667  0.83803618     1.04400
O1552       O  0.64438596  0.99506187  0.83435426    -0.76100
O1553       O  0.50412019  0.90472515  0.81974953    -0.76300
C1554       C  0.52473536  0.89315614  0.79690626     1.04300
Cr1555     Cr  0.54802164  0.01230859  0.77651170     1.93700
Cr1556     Cr  0.68497587  0.62963460  0.80950825     1.93200
Cr1557     Cr  0.56771791  0.99270487  0.84266248     1.39100
O1558       O  0.60087674  0.04551032  0.80955718    -1.21300
N1559       N  0.52220756  0.83722742  0.80193577    -0.01700
C1560       C  0.50279998  0.78627603  0.78128024     0.00900
C1561       C  0.48421506  0.73121373  0.79921108    -0.22000
C1562       C  0.49695590  0.74924421  0.83062387    -0.22200
C1563       C  0.51899076  0.81282414  0.83248305     0.00800
H1564       H  0.46622205  0.68317136  0.79030236     0.14500
H1565       H  0.48939005  0.71825091  0.85036551     0.14600
N1566       N  0.89274164  0.96700354  0.81734406    -0.01700
C1567       C  0.84178405  0.94755483  0.83802710     0.00900
C1568       C  0.78669722  0.92885282  0.82012430    -0.22000
C1569       C  0.80472418  0.94160981  0.78869995    -0.22200
C1570       C  0.86831895  0.96373727  0.78680572     0.00800
H1571       H  0.73863957  0.91078209  0.82905862     0.14500
H1572       H  0.77370832  0.93397026  0.76897321     0.14600
N1573       N  0.74969537  0.01150498  0.87519962    -0.01700
C1574       C  0.80336847  0.01583626  0.87513738     0.00900
C1575       C  0.85199928  0.06568582  0.85290324    -0.22000
C1576       C  0.82290006  0.08465747  0.83613518    -0.22200
C1577       C  0.75874781  0.04760563  0.84930033     0.00800
H1578       H  0.89951713  0.07985138  0.84639886     0.14500
H1579       H  0.84419149  0.11825659  0.81543918     0.14600
N1580       N  0.06688902  0.69439972  0.74393107    -0.01700
C1581       C  0.07111965  0.74802169  0.74403224     0.00900
C1582       C  0.62094904  0.79665924  0.76622706    -0.22000
C1583       C  0.63998097  0.76757282  0.78295624    -0.22200
C1584       C  0.60299196  0.70344092  0.76979464     0.00800
H1585       H  0.63504170  0.84414206  0.77274756     0.14500
H1586       H  0.67355668  0.78884402  0.80362961     0.14600
N1587       N  0.45212205  0.71392257  0.99399131    -0.01700
C1588       C  0.44785798  0.66027628  0.99406362     0.00900
C1589       C  0.39804314  0.61161600  0.51630050    -0.22000
C1590       C  0.87902994  0.64068879  0.53306246    -0.22200
C1591       C  0.41602085  0.70484579  0.51988771     0.00800
H1592       H  0.38393469  0.56411070  0.52281418     0.14500
H1593       H  0.84546695  0.61939454  0.55376675     0.14600
N1594       N  0.76942384  0.89692600  0.62526287    -0.01700
C1595       C  0.71577343  0.89262582  0.62517156     0.00900
C1596       C  0.66716515  0.84275685  0.60298124    -0.22000
C1597       C  0.69627962  0.82376663  0.58624599    -0.22200
C1598       C  0.76040792  0.86082161  0.59939671     0.00800
H1599       H  0.61966909  0.82860506  0.59647030     0.14500
H1600       H  0.67501110  0.79015126  0.56558156     0.14600
loop_ 
_geom_bond_atom_site_label_1 
_geom_bond_atom_site_label_2 
_geom_bond_distance 
_geom_bond_site_symmetry_2 
_ccdc_geom_bond_type 
N1            C2   1.374       .  A
N1          C405   1.368       .  A
N1            C9   1.476       .  S
C2          C195   1.497       .  S
C2          C403   1.388       .  A
C3            C4   1.375       .  A
C3          C402   1.388   1_545  A
C3            H6   1.076       .  S
C4            C5   1.393       .  A
C4            H7   1.083       .  S
C5          N401   1.368   1_545  A
C5          C452   1.509   1_545  S
N8           C12   1.404       .  A
N8            C9   1.376       .  A
N8           C39   1.466       .  S
C9           C10   1.402       .  A
C10          C11   1.354       .  A
C10          H13   1.082       .  S
C11          C12   1.367       .  A
C11          H14   1.083       .  S
C12         C319   1.515       .  S
N15          C19   1.404       .  A
N15          C16   1.376       .  A
N15          C30   1.466       .  S
C16         N844   1.476   1_554  S
C16          C17   1.402       .  A
C17          C18   1.354       .  A
C17         H820   1.082       .  S
C18          C19   1.367       .  A
C18          H21   1.083       .  S
C19          C76   1.515       .  S
H20         C817   1.082       .  S
O22          C30   1.241       .  A
O22        Cr440   1.959   1_545  S
O23          C24   1.282       .  A
O23         Cr40   2.039       .  S
C24         C198   1.476       .  S
C24          O25   1.251       .  A
O25         Cr41   1.956       .  S
O26          C27   1.276   1_554  A
O26         Cr41   2.063       .  S
C27         C305   1.496       .  S
C27         O228   1.232       .  A
O28         C227   1.232       .  A
O28       Cr1042   1.940       .  S
O29         C430   1.291       .  A
O29        Cr842   2.121       .  S
C30         O429   1.291   1_545  A
O31          C39   1.291       .  A
O31        Cr840   2.121   1_455  S
O32          C33   1.232       .  A
O32         Cr40   1.940       .  S
C33          C62   1.496       .  S
C33          O34   1.276       .  A
O34         Cr41   2.063       .  S
O35         C836   1.251       .  A
O35         Cr41   1.956       .  S
C36         C191   1.476       .  S
C36          O37   1.282       .  A
C36         O835   1.251       .  A
O37         Cr42   2.039       .  S
O38          C39   1.241       .  A
O38         Cr42   1.959   1_455  S
Cr40        O422   1.959       .  S
Cr40        O831   2.121       .  S
Cr40         O43   1.719       .  S
Cr41         O43   1.777       .  S
Cr42       O1028   1.940   1_554  S
Cr42        O829   2.121       .  S
Cr42        O843   1.719       .  S
O43        Cr842   1.719       .  S
N44          C48   1.374       .  A
N44         C245   1.368       .  A
N44         C816   1.476   1_556  S
C45         N244   1.368       .  A
C45          C95   1.509       .  S
C45          C46   1.393       .  A
C46          C47   1.375       .  A
C46          H49   1.083       .  S
C47         C248   1.388       .  A
C47          H50   1.076       .  S
C48         C388   1.498   1_455  S
C48         C247   1.388       .  A
N51          C55   1.389       .  A
N51          C52   1.360       .  A
N51          C82   1.459       .  S
C52         C405   1.509       .  S
C52          C53   1.399       .  A
C53          C54   1.368       .  A
C53          H56   1.081       .  S
C54          C55   1.373       .  A
C54          H57   1.083       .  S
C55         C148   1.496       .  S
N58          C62   1.389       .  A
N58          C59   1.360       .  A
N58          C73   1.458       .  S
C59          C91   1.509       .  S
C59          C60   1.399       .  A
C60          C61   1.368       .  A
C60          H63   1.081       .  S
C61          C62   1.373       .  A
C61          H64   1.083       .  S
O65          C73   1.240       .  A
O65         Cr83   1.975       .  S
O66          C67   1.246       .  A
O66         Cr83   1.930       .  S
C67         N194   1.442       .  S
C67         O468   1.246       .  A
O68         C467   1.246       .  A
O68         Cr84   1.984   1_565  S
O69          C70   1.294   1_545  A
O69         Cr84   2.093       .  S
C70         C570   1.515       .  S
C70         O471   1.262       .  A
O71         C470   1.262       .  A
O71         Cr85   1.966       .  S
O72          C73   1.276       .  A
O72         Cr85   2.084       .  S
O74          C82   1.276       .  A
O74        Cr883   2.084   1_455  S
O75          C76   1.262       .  A
O75        Cr483   1.966   1_545  S
C76          O77   1.294       .  A
O77         Cr84   2.093       .  S
O78          C79   1.246       .  A
O78         Cr84   1.984       .  S
C79         N180   1.442       .  S
C79          O80   1.246       .  A
O80        Cr485   1.929       .  S
O81          C82   1.240       .  A
O81        Cr885   1.975       .  S
Cr83        O874   2.084       .  S
Cr83        O475   1.966       .  S
Cr83        O486   1.732       .  S
Cr84         O86   1.799       .  S
Cr85        O480   1.929       .  S
Cr85        O881   1.975       .  S
Cr85        O486   1.732       .  S
O86        Cr483   1.732   1_545  S
O86        Cr485   1.732       .  S
N87          C91   1.368       .  A
N87          C88   1.374       .  A
N87         C960   1.476       .  S
C88         C181   1.497       .  S
C88          C89   1.388       .  A
C89          C90   1.375       .  A
C89          H92   1.076       .  S
C90          C91   1.393       .  A
C90          H93   1.083       .  S
N94          C98   1.389       .  A
N94          C95   1.360       .  A
N94         C125   1.458       .  S
C95          C96   1.399       .  A
C96          C97   1.368       .  A
C96          H99   1.081   1_455  S
C97          C98   1.373       .  A
C97         H100   1.083       .  S
C98         C142   1.496       .  S
N101        C105   1.389       .  A
N101        C102   1.360       .  A
N101        C116   1.458       .  S
C102        C131   1.509       .  S
C102        C103   1.399       .  A
C103        C104   1.368       .  A
C103        H106   1.081       .  S
C104        C105   1.373       .  A
C104        H107   1.083       .  S
C105        C227   1.496       .  S
O108        C116   1.240       .  A
O108       Cr926   1.975       .  S
O109        C110   1.246       .  A
O109       Cr126   1.930   1_655  S
C110        N187   1.442       .  S
C110        O111   1.246   1_655  A
O111       Cr127   1.984       .  S
O112        C113   1.294       .  A
O112       Cr127   2.093       .  S
C113        C163   1.515       .  S
C113        O114   1.262       .  A
O114       Cr128   1.966       .  S
O115        C116   1.276       .  A
O115       Cr928   2.084       .  S
O117        C525   1.276       .  A
O117       Cr126   2.084       .  S
O118        C119   1.262       .  A
O118       Cr126   1.966       .  S
C119        C212   1.515       .  S
C119        O120   1.294       .  A
O120       Cr127   2.093       .  S
O121        C122   1.246       .  A
O121       Cr127   1.984       .  S
C122        N173   1.442       .  S
C122        O123   1.246       .  A
O123       Cr128   1.930       .  S
O124        C525   1.240       .  A
O124       Cr128   1.975       .  S
C125        O517   1.276   1_545  A
C125        O524   1.240       .  A
Cr126       O908   1.975   1_455  S
Cr126       O129   1.732       .  S
Cr127       O129   1.799       .  S
Cr128       O915   2.084   1_455  S
Cr128       O129   1.732       .  S
N130        C134   1.374       .  A
N130        C131   1.368       .  A
N130        C167   1.476       .  S
C131        C132   1.393       .  A
C132        C133   1.375       .  A
C132        H135   1.083       .  S
C133        C134   1.388       .  A
C133        H136   1.076       .  S
C134        C174   1.498       .  S
O137        C145   1.241       .  A
O137       Cr955   1.959       .  S
O138        C139   1.282       .  A
O138       Cr555   2.039       .  S
C139        C184   1.476       .  S
C139        O140   1.251       .  A
O140       Cr156   1.956       .  S
O141        C142   1.276       .  A
O141       Cr156   2.063       .  S
C142        O143   1.232       .  A
O143       Cr557   1.940   1_545  S
O144        C145   1.291       .  A
O144       Cr957   2.121       .  S
C145        N166   1.466       .  S
O146        C154   1.291       .  A
O146       Cr155   2.121       .  S
O147        C148   1.232       .  A
O147       Cr155   1.940       .  S
C148        O549   1.276       .  A
O149        C548   1.276       .  A
O149       Cr156   2.063       .  S
O150        C551   1.251       .  A
O150       Cr156   1.956       .  S
C151        C177   1.477       .  S
C151        O152   1.282       .  A
C151        O550   1.251       .  A
O152       Cr157   2.039       .  S
O153        C154   1.241       .  A
O153       Cr157   1.959       .  S
C154        N159   1.466       .  S
Cr155       O937   1.959   1_455  S
Cr155       O538   2.039       .  S
Cr155       O158   1.719       .  S
Cr156       O558   1.777       .  S
Cr157       O543   1.940       .  S
Cr157       O944   2.121   1_455  S
Cr157       O158   1.719       .  S
O158       Cr556   1.777       .  S
N159        C163   1.404       .  A
N159        C160   1.376       .  A
C160        N887   1.476       .  S
C160        C161   1.402   1_455  A
C161        C162   1.354       .  A
C161        H164   1.082       .  S
C162        C163   1.367   1_655  A
C162        H165   1.083       .  S
N166        C170   1.404       .  A
N166        C167   1.376       .  A
C167        C168   1.402       .  A
C168        C169   1.354       .  A
C168        H171   1.082       .  S
C169        C170   1.367       .  A
C169        H172   1.083       .  S
C170        C470   1.515       .  S
N173        C177   1.353       .  A
N173        C174   1.360       .  A
C174        C175   1.392       .  A
C175        C176   1.377       .  A
C175        H178   1.082       .  S
C176        C177   1.374       .  A
C176        H179   1.081       .  S
N180        C181   1.360       .  A
N180        C984   1.353       .  A
C181        C982   1.392       .  A
C182        C183   1.377       .  A
C182        C981   1.392       .  A
C182        H185   1.082       .  S
C183        C184   1.374       .  A
C183        H186   1.081       .  S
C184        N980   1.353       .  A
N187        C188   1.360       .  A
N187        C391   1.353       .  A
C188        C248   1.498   1_655  S
C188        C389   1.392       .  A
C189        C388   1.392   1_554  A
C189        C990   1.377       .  A
C189        H192   1.082       .  S
C190        C989   1.377       .  A
C190        C991   1.374       .  A
C190        H193   1.081       .  S
C191        N387   1.353   1_554  A
C191        C990   1.374       .  A
N194        C198   1.353       .  A
N194        C195   1.360       .  A
C195        C196   1.392       .  A
C196        C197   1.377       .  A
C196        H199   1.082       .  S
C197        C198   1.374       .  A
C197        H200   1.081       .  S
N201        C605   1.368       .  A
N201        C202   1.374       .  A
N201        C209   1.476       .  S
C202        C395   1.497       .  S
C202        C603   1.388       .  A
C203        C602   1.388   1_545  A
C203        C204   1.375       .  A
C203        H206   1.076       .  S
C204        C205   1.393       .  A
C204        H207   1.083       .  S
C205        N601   1.368   1_545  A
C205        C652   1.509   1_545  S
N208        C212   1.404       .  A
N208        C209   1.376       .  A
N208        C239   1.466       .  S
C209        C210   1.402       .  A
C210        C211   1.354       .  A
C210        H213   1.082       .  S
C211        C212   1.367       .  A
C211        H214   1.083       .  S
N215        C219   1.404       .  A
N215        C216   1.376       .  A
N215        C230   1.466       .  S
C216       N1044   1.476       .  S
C216        C217   1.402       .  A
C217        C218   1.354       .  A
C217       H1020   1.082       .  S
C218        C219   1.367       .  A
C218        H221   1.083       .  S
C219        C276   1.515       .  S
H220       C1017   1.082       .  S
O222        C230   1.241       .  A
O222       Cr640   1.959   1_545  S
O223        C224   1.282       .  A
O223       Cr240   2.039       .  S
C224        C398   1.476       .  S
C224        O225   1.251       .  A
O225       Cr241   1.956       .  S
O226        C227   1.276       .  A
O226       Cr241   2.063       .  S
O228       Cr842   1.940   1_556  S
O229        C630   1.291       .  A
O229      Cr1042   2.121       .  S
C230        O629   1.291   1_545  A
O231        C239   1.291       .  A
O231      Cr1040   2.121   1_455  S
O232        C233   1.232       .  A
O232       Cr240   1.940       .  S
C233        C262   1.496       .  S
C233        O234   1.276       .  A
O234       Cr241   2.063       .  S
O235       C1036   1.251       .  A
O235       Cr241   1.956       .  S
C236        C391   1.476       .  S
C236       O1035   1.251       .  A
C236        O237   1.282       .  A
O237       Cr242   2.039       .  S
O238        C239   1.241       .  A
O238       Cr242   1.959   1_455  S
Cr240       O622   1.959       .  S
Cr240      O1031   2.121       .  S
Cr240       O243   1.719       .  S
Cr241       O243   1.777       .  S
Cr242       O828   1.940       .  S
Cr242      O1029   2.121       .  S
Cr242      O1043   1.719       .  S
O243      Cr1042   1.719       .  S
N244        C248   1.374       .  A
N244       C1016   1.476       .  S
C245        C295   1.509       .  S
C245        C246   1.393       .  A
C246        C247   1.375       .  A
C246        H249   1.083       .  S
C247        H250   1.076       .  S
N251        C255   1.389       .  A
N251        C252   1.360       .  A
N251        C282   1.459       .  S
C252        C605   1.509       .  S
C252        C253   1.399       .  A
C253        C254   1.368       .  A
C253        H256   1.081       .  S
C254        C255   1.373       .  A
C254        H257   1.083       .  S
C255        C348   1.496       .  S
N258        C262   1.389       .  A
N258        C259   1.360       .  A
N258        C273   1.458       .  S
C259        C291   1.509       .  S
C259        C260   1.399       .  A
C260        C261   1.368       .  A
C260        H263   1.081       .  S
C261        C262   1.373       .  A
C261        H264   1.083       .  S
O265        C273   1.240       .  A
O265       Cr283   1.975       .  S
O266        C267   1.246       .  A
O266       Cr283   1.930       .  S
C267        N394   1.442       .  S
C267        O668   1.246       .  A
O268        C667   1.246       .  A
O268       Cr284   1.984   1_565  S
O269        C270   1.294   1_545  A
O269       Cr284   2.093       .  S
C270        C770   1.515       .  S
C270        O671   1.262       .  A
O271        C670   1.262       .  A
O271       Cr285   1.966       .  S
O272        C273   1.276       .  A
O272       Cr285   2.084       .  S
O274        C282   1.276       .  A
O274      Cr1083   2.084   1_455  S
O275        C276   1.262       .  A
O275       Cr683   1.966   1_545  S
C276        O277   1.294       .  A
O277       Cr284   2.093       .  S
O278        C279   1.246       .  A
O278       Cr284   1.984       .  S
C279        N380   1.442       .  S
C279        O280   1.246       .  A
O280       Cr685   1.929       .  S
O281        C282   1.240       .  A
O281      Cr1085   1.975       .  S
Cr283      O1074   2.084       .  S
Cr283       O675   1.966       .  S
Cr283       O686   1.732       .  S
Cr284       O286   1.799       .  S
Cr285       O680   1.929       .  S
Cr285      O1081   1.975       .  S
Cr285       O686   1.732       .  S
O286       Cr683   1.732   1_545  S
O286       Cr685   1.732       .  S
N287        C291   1.368       .  A
N287        C288   1.374       .  A
N287       C1160   1.476       .  S
C288        C381   1.497       .  S
C288        C289   1.388       .  A
C289        C290   1.375       .  A
C289        H292   1.076       .  S
C290        C291   1.393       .  A
C290        H293   1.083       .  S
N294        C298   1.389       .  A
N294        C295   1.360       .  A
N294        C325   1.458       .  S
C295        C296   1.399       .  A
C296        C297   1.368       .  A
C296        H299   1.081   1_455  S
C297        C298   1.373       .  A
C297        H300   1.083       .  S
C298        C342   1.496       .  S
N301        C305   1.389       .  A
N301        C302   1.360       .  A
N301        C316   1.458       .  S
C302        C331   1.509       .  S
C302        C303   1.399       .  A
C303        C304   1.368       .  A
C303        H306   1.081       .  S
C304        C305   1.373       .  A
C304        H307   1.083       .  S
O308        C316   1.240       .  A
O308      Cr1126   1.975       .  S
O309        C310   1.246       .  A
O309       Cr326   1.930   1_655  S
C310        N387   1.442       .  S
C310        O311   1.246   1_655  A
O311       Cr327   1.984       .  S
O312        C313   1.294       .  A
O312       Cr327   2.093       .  S
C313        C363   1.515       .  S
C313        O314   1.262       .  A
O314       Cr328   1.966       .  S
O315        C316   1.276       .  A
O315      Cr1128   2.084       .  S
O317        C725   1.276       .  A
O317       Cr326   2.084       .  S
O318        C319   1.262   1_556  A
O318       Cr326   1.966       .  S
C319        O320   1.294   1_554  A
O320       Cr327   2.093       .  S
O321        C322   1.246       .  A
O321       Cr327   1.984       .  S
C322        N373   1.442       .  S
C322        O323   1.246       .  A
O323       Cr328   1.930       .  S
O324        C725   1.240       .  A
O324       Cr328   1.975       .  S
C325        O717   1.276   1_545  A
C325        O724   1.240       .  A
Cr326      O1108   1.975   1_455  S
Cr326       O329   1.732       .  S
Cr327       O329   1.799       .  S
Cr328      O1115   2.084   1_455  S
Cr328       O329   1.732       .  S
N330        C334   1.374       .  A
N330        C331   1.368       .  A
N330        C367   1.476       .  S
C331        C332   1.393       .  A
C332        C333   1.375       .  A
C332        H335   1.083       .  S
C333        C334   1.388       .  A
C333        H336   1.076       .  S
C334        C374   1.498       .  S
O337        C345   1.241       .  A
O337      Cr1155   1.959       .  S
O338        C339   1.282       .  A
O338       Cr755   2.039       .  S
C339        C384   1.476       .  S
C339        O340   1.251       .  A
O340       Cr356   1.956       .  S
O341        C342   1.276       .  A
O341       Cr356   2.063       .  S
C342        O343   1.232       .  A
O343       Cr757   1.940   1_545  S
O344        C345   1.291       .  A
O344      Cr1157   2.121       .  S
C345        N366   1.466       .  S
O346        C354   1.291       .  A
O346       Cr355   2.121       .  S
O347        C348   1.232       .  A
O347       Cr355   1.940       .  S
C348        O749   1.276       .  A
O349        C748   1.276       .  A
O349       Cr356   2.063       .  S
O350        C751   1.251       .  A
O350       Cr356   1.956       .  S
C351        C377   1.477       .  S
C351        O750   1.251       .  A
C351        O352   1.282       .  A
O352       Cr357   2.039       .  S
O353        C354   1.241       .  A
O353       Cr357   1.959       .  S
C354        N359   1.466       .  S
Cr355      O1137   1.959   1_455  S
Cr355       O738   2.039       .  S
Cr355       O358   1.719       .  S
Cr356       O758   1.777       .  S
Cr357       O743   1.940       .  S
Cr357      O1144   2.121   1_455  S
Cr357       O358   1.719       .  S
O358       Cr756   1.777       .  S
N359        C363   1.404       .  A
N359        C360   1.376       .  A
C360       N1087   1.476       .  S
C360        C361   1.402   1_455  A
C361        C362   1.354       .  A
C361        H364   1.082       .  S
C362        C363   1.367   1_655  A
C362        H365   1.083       .  S
N366        C370   1.404       .  A
N366        C367   1.376       .  A
C367        C368   1.402       .  A
C368        C369   1.354       .  A
C368        H371   1.082       .  S
C369        C370   1.367       .  A
C369        H372   1.083       .  S
C370        C670   1.515       .  S
N373        C377   1.353       .  A
N373        C374   1.360       .  A
C374        C375   1.392       .  A
C375        C376   1.377       .  A
C375        H378   1.082       .  S
C376        C377   1.374       .  A
C376        H379   1.081       .  S
N380       C1184   1.353       .  A
N380        C381   1.360       .  A
C381       C1182   1.392       .  A
C382       C1181   1.392       .  A
C382        C383   1.377       .  A
C382        H385   1.082       .  S
C383        C384   1.374       .  A
C383        H386   1.081       .  S
C384       N1180   1.353       .  A
N387        C388   1.360       .  A
C389       C1190   1.377       .  A
C389        H392   1.082       .  S
C390       C1189   1.377       .  A
C390       C1191   1.374       .  A
C390        H393   1.081       .  S
C391       C1190   1.374       .  A
N394        C398   1.353       .  A
N394        C395   1.360       .  A
C395        C396   1.392       .  A
C396        C397   1.377       .  A
C396        H399   1.082       .  S
C397        C398   1.374       .  A
C397        H400   1.081       .  S
N401        C402   1.374       .  A
N401        C409   1.476       .  S
C402        C595   1.497       .  S
C403        C404   1.375       .  A
C403        H406   1.076       .  S
C404        C405   1.393       .  A
C404        H407   1.083       .  S
N408        C412   1.404       .  A
N408        C409   1.376       .  A
N408        C439   1.466       .  S
C409        C410   1.402       .  A
C410        C411   1.354       .  A
C410        H413   1.082       .  S
C411        C412   1.367       .  A
C411        H414   1.083       .  S
C412        C719   1.515       .  S
N415        C419   1.404       .  A
N415        C416   1.376       .  A
N415        C430   1.466       .  S
C416       N1244   1.476   1_554  S
C416        C417   1.402       .  A
C417        C418   1.354       .  A
C417       H1220   1.082       .  S
C418        C419   1.367       .  A
C418        H421   1.083       .  S
C419        C476   1.515       .  S
H420       C1217   1.082       .  S
O422        C430   1.241       .  A
O423        C424   1.282       .  A
O423       Cr440   2.039       .  S
C424        C598   1.476       .  S
C424        O425   1.251       .  A
O425       Cr441   1.956       .  S
O426        C427   1.276   1_554  A
O426       Cr441   2.063       .  S
C427        C705   1.496       .  S
C427        O628   1.232       .  A
O428        C627   1.232       .  A
O428      Cr1442   1.940       .  S
O429      Cr1242   2.121       .  S
O431        C439   1.291       .  A
O431      Cr1240   2.121   1_455  S
O432        C433   1.232       .  A
O432       Cr440   1.940       .  S
C433        C462   1.496       .  S
C433        O434   1.276       .  A
O434       Cr441   2.063       .  S
O435       C1236   1.251       .  A
O435       Cr441   1.956       .  S
C436        C591   1.476       .  S
C436       O1235   1.251       .  A
C436        O437   1.282       .  A
O437       Cr442   2.039       .  S
O438        C439   1.241       .  A
O438       Cr442   1.959   1_455  S
Cr440      O1231   2.121       .  S
Cr440       O443   1.719       .  S
Cr441       O443   1.777       .  S
Cr442      O1428   1.940   1_554  S
Cr442      O1229   2.121       .  S
Cr442      O1243   1.719       .  S
O443      Cr1242   1.719       .  S
N444        C448   1.374       .  A
N444        C645   1.368       .  A
N444       C1216   1.476   1_556  S
C445        N644   1.368       .  A
C445        C495   1.509       .  S
C445        C446   1.392       .  A
C446        C447   1.375       .  A
C446        H449   1.083       .  S
C447        C648   1.388       .  A
C447        H450   1.076       .  S
C448        C788   1.498   1_455  S
C448        C647   1.388       .  A
N451        C455   1.389       .  A
N451        C452   1.360   1_545  A
N451        C482   1.459       .  S
C452        C453   1.399       .  A
C453        C454   1.368   1_565  A
C453        H456   1.081       .  S
C454        C455   1.373       .  A
C454        H457   1.083   1_545  S
C455        C548   1.496       .  S
N458        C462   1.389       .  A
N458        C459   1.360       .  A
N458        C473   1.458       .  S
C459        C491   1.509       .  S
C459        C460   1.399       .  A
C460        C461   1.368       .  A
C460        H463   1.081       .  S
C461        C462   1.373       .  A
C461        H464   1.083       .  S
O465        C473   1.240       .  A
O465       Cr483   1.975       .  S
O466        C467   1.246       .  A
O466       Cr483   1.930       .  S
C467        N594   1.442       .  S
O468       Cr484   1.984       .  S
O469        C470   1.294       .  A
O469       Cr484   2.093       .  S
O471       Cr485   1.966   1_565  S
O472        C473   1.276       .  A
O472       Cr485   2.084   1_565  S
O474        C482   1.276   1_565  A
O474      Cr1283   2.084   1_455  S
O475        C476   1.262       .  A
C476        O477   1.294       .  A
O477       Cr484   2.093       .  S
O478        C479   1.246       .  A
O478       Cr484   1.984       .  S
C479        N580   1.442       .  S
C479        O480   1.246       .  A
O481        C482   1.240       .  A
O481      Cr1285   1.975       .  S
Cr483      O1274   2.084       .  S
Cr484       O486   1.799       .  S
Cr485      O1281   1.975       .  S
N487        C491   1.368       .  A
N487        C488   1.374       .  A
N487       C1360   1.476       .  S
C488        C581   1.497       .  S
C488        C489   1.388       .  A
C489        C490   1.375       .  A
C489        H492   1.076       .  S
C490        C491   1.393       .  A
C490        H493   1.083       .  S
N494        C498   1.389       .  A
N494        C495   1.360       .  A
N494        C525   1.458       .  S
C495        C496   1.399       .  A
C496        C497   1.368       .  A
C496        H499   1.081   1_455  S
C497        C498   1.373       .  A
C497        H500   1.083       .  S
C498        C542   1.496       .  S
N501        C505   1.389       .  A
N501        C502   1.360       .  A
N501        C516   1.458       .  S
C502        C531   1.509       .  S
C502        C503   1.399       .  A
C503        C504   1.368       .  A
C503        H506   1.081       .  S
C504        C505   1.373       .  A
C504        H507   1.083       .  S
C505        C627   1.496       .  S
O508        C516   1.240       .  A
O508      Cr1326   1.975       .  S
O509        C510   1.246       .  A
O509       Cr526   1.930   1_655  S
C510        N587   1.442       .  S
C510        O511   1.246   1_655  A
O511       Cr527   1.984       .  S
O512        C513   1.294       .  A
O512       Cr527   2.093       .  S
C513        C563   1.515       .  S
C513        O514   1.262       .  A
O514       Cr528   1.966       .  S
O515        C516   1.276       .  A
O515      Cr1328   2.084       .  S
O517       Cr526   2.084       .  S
O518        C519   1.262       .  A
O518       Cr526   1.966       .  S
C519        C612   1.515       .  S
C519        O520   1.294       .  A
O520       Cr527   2.093       .  S
O521        C522   1.246       .  A
O521       Cr527   1.984       .  S
C522        N573   1.442   1_565  S
C522        O523   1.246       .  A
O523       Cr528   1.930       .  S
O524       Cr528   1.975   1_545  S
Cr526      O1308   1.975   1_455  S
Cr526       O529   1.732       .  S
Cr527       O529   1.799       .  S
Cr528      O1315   2.084   1_455  S
Cr528       O529   1.732       .  S
N530        C534   1.374       .  A
N530        C531   1.368       .  A
N530        C567   1.476       .  S
C531        C532   1.393       .  A
C532        C533   1.375       .  A
C532        H535   1.083       .  S
C533        C534   1.388       .  A
C533        H536   1.076       .  S
C534        C574   1.498   1_565  S
O537        C545   1.241       .  A
O537      Cr1355   1.959   1_565  S
O538        C539   1.282       .  A
C539        C584   1.476       .  S
C539        O540   1.251       .  A
O540       Cr556   1.956       .  S
O541        C542   1.276       .  A
O541       Cr556   2.063       .  S
C542        O543   1.232       .  A
O544        C545   1.291       .  A
O544      Cr1357   2.121       .  S
C545        N566   1.466       .  S
O546        C554   1.291       .  A
O546       Cr555   2.121   1_565  S
O547        C548   1.232       .  A
O547       Cr555   1.940       .  S
O549       Cr556   2.063       .  S
O550       Cr556   1.956       .  S
C551        C577   1.477       .  S
C551        O552   1.282   1_545  A
O552       Cr557   2.039       .  S
O553        C554   1.241       .  A
O553       Cr557   1.959       .  S
C554        N559   1.466       .  S
Cr555      O1337   1.959   1_445  S
Cr555       O558   1.719       .  S
Cr557      O1344   2.121   1_455  S
Cr557       O558   1.719   1_565  S
N559        C563   1.404       .  A
N559        C560   1.376       .  A
C560       N1287   1.476       .  S
C560        C561   1.402   1_455  A
C561        C562   1.354       .  A
C561        H564   1.082       .  S
C562        C563   1.367   1_655  A
C562        H565   1.083       .  S
N566        C570   1.404       .  A
N566        C567   1.376       .  A
C567        C568   1.402       .  A
C568        C569   1.354       .  A
C568        H571   1.082       .  S
C569        C570   1.367       .  A
C569        H572   1.083       .  S
N573        C577   1.353       .  A
N573        C574   1.360       .  A
C574        C575   1.392       .  A
C575        C576   1.377       .  A
C575        H578   1.082       .  S
C576        C577   1.374       .  A
C576        H579   1.081       .  S
N580       C1384   1.353       .  A
N580        C581   1.360       .  A
C581       C1382   1.392       .  A
C582       C1381   1.392       .  A
C582        C583   1.377       .  A
C582        H585   1.082       .  S
C583        C584   1.374       .  A
C583        H586   1.081       .  S
C584       N1380   1.353       .  A
N587        C791   1.353       .  A
N587        C588   1.360       .  A
C588        C648   1.498   1_655  S
C588        C789   1.392       .  A
C589        C788   1.392   1_554  A
C589       C1390   1.377       .  A
C589        H592   1.082       .  S
C590       C1389   1.377       .  A
C590       C1391   1.374       .  A
C590        H593   1.081       .  S
C591        N787   1.353   1_554  A
C591       C1390   1.374       .  A
N594        C598   1.353       .  A
N594        C595   1.360       .  A
C595        C596   1.392       .  A
C596        C597   1.377       .  A
C596        H599   1.082       .  S
C597        C598   1.374       .  A
C597        H600   1.081       .  S
N601        C602   1.374       .  A
N601        C609   1.476       .  S
C602        C795   1.497       .  S
C603        C604   1.375       .  A
C603        H606   1.076       .  S
C604        C605   1.393       .  A
C604        H607   1.083       .  S
N608        C612   1.404       .  A
N608        C609   1.376       .  A
N608        C639   1.466       .  S
C609        C610   1.402       .  A
C610        C611   1.354       .  A
C610        H613   1.082       .  S
C611        C612   1.367       .  A
C611        H614   1.083       .  S
N615        C619   1.404       .  A
N615        C616   1.376       .  A
N615        C630   1.466       .  S
C616       N1444   1.476       .  S
C616        C617   1.402       .  A
C617        C618   1.354       .  A
C617       H1420   1.082       .  S
C618        C619   1.367       .  A
C618        H621   1.083       .  S
C619        C676   1.515       .  S
H620       C1417   1.082       .  S
O622        C630   1.241       .  A
O623        C624   1.282       .  A
O623       Cr640   2.039       .  S
C624        C798   1.476       .  S
C624        O625   1.251       .  A
O625       Cr641   1.956       .  S
O626        C627   1.276       .  A
O626       Cr641   2.063       .  S
O628      Cr1242   1.940   1_556  S
O629      Cr1442   2.121       .  S
O631        C639   1.291       .  A
O631      Cr1440   2.121   1_455  S
O632        C633   1.232       .  A
O632       Cr640   1.940       .  S
C633        C662   1.496       .  S
C633        O634   1.276       .  A
O634       Cr641   2.063       .  S
O635       C1436   1.251       .  A
O635       Cr641   1.956       .  S
C636        C791   1.476       .  S
C636       O1435   1.251       .  A
C636        O637   1.282       .  A
O637       Cr642   2.039       .  S
O638        C639   1.241       .  A
O638       Cr642   1.959   1_455  S
Cr640      O1431   2.121       .  S
Cr640       O643   1.719       .  S
Cr641       O643   1.777       .  S
Cr642      O1228   1.940       .  S
Cr642      O1429   2.121       .  S
Cr642      O1443   1.719       .  S
O643      Cr1442   1.719       .  S
N644        C648   1.374       .  A
N644       C1416   1.476       .  S
C645        C695   1.509       .  S
C645        C646   1.392       .  A
C646        C647   1.375       .  A
C646        H649   1.083       .  S
C647        H650   1.076       .  S
N651        C655   1.389       .  A
N651        C652   1.360   1_545  A
N651        C682   1.459       .  S
C652        C653   1.399       .  A
C653        C654   1.368   1_565  A
C653        H656   1.081       .  S
C654        C655   1.373       .  A
C654        H657   1.083   1_545  S
C655        C748   1.496       .  S
N658        C662   1.389       .  A
N658        C659   1.360       .  A
N658        C673   1.458       .  S
C659        C691   1.509       .  S
C659        C660   1.399       .  A
C660        C661   1.368       .  A
C660        H663   1.081       .  S
C661        C662   1.373       .  A
C661        H664   1.083       .  S
O665        C673   1.240       .  A
O665       Cr683   1.975       .  S
O666        C667   1.246       .  A
O666       Cr683   1.930       .  S
C667        N794   1.442       .  S
O668       Cr684   1.984       .  S
O669        C670   1.294       .  A
O669       Cr684   2.093       .  S
O671       Cr685   1.966   1_565  S
O672        C673   1.276       .  A
O672       Cr685   2.084   1_565  S
O674        C682   1.276   1_565  A
O674      Cr1483   2.084   1_455  S
O675        C676   1.262       .  A
C676        O677   1.294       .  A
O677       Cr684   2.093       .  S
O678        C679   1.246       .  A
O678       Cr684   1.984       .  S
C679        N780   1.442       .  S
C679        O680   1.246       .  A
O681        C682   1.240       .  A
O681      Cr1485   1.975       .  S
Cr683      O1474   2.084       .  S
Cr684       O686   1.799       .  S
Cr685      O1481   1.975       .  S
N687        C691   1.368       .  A
N687        C688   1.374       .  A
N687       C1560   1.476       .  S
C688        C781   1.497       .  S
C688        C689   1.388       .  A
C689        C690   1.375       .  A
C689        H692   1.076       .  S
C690        C691   1.393       .  A
C690        H693   1.083       .  S
N694        C698   1.389       .  A
N694        C695   1.360       .  A
N694        C725   1.458       .  S
C695        C696   1.399       .  A
C696        C697   1.368       .  A
C696        H699   1.081   1_455  S
C697        C698   1.373       .  A
C697        H700   1.083       .  S
C698        C742   1.496       .  S
N701        C705   1.389       .  A
N701        C702   1.360       .  A
N701        C716   1.458       .  S
C702        C731   1.509       .  S
C702        C703   1.399       .  A
C703        C704   1.368       .  A
C703        H706   1.081       .  S
C704        C705   1.373       .  A
C704        H707   1.083       .  S
O708        C716   1.240       .  A
O708      Cr1526   1.975       .  S
O709        C710   1.246       .  A
O709       Cr726   1.930   1_655  S
C710        N787   1.442       .  S
C710        O711   1.246   1_655  A
O711       Cr727   1.984       .  S
O712        C713   1.294       .  A
O712       Cr727   2.093       .  S
C713        C763   1.515       .  S
C713        O714   1.262       .  A
O714       Cr728   1.966       .  S
O715        C716   1.276       .  A
O715      Cr1528   2.084       .  S
O717       Cr726   2.084       .  S
O718        C719   1.262   1_556  A
O718       Cr726   1.966       .  S
C719        O720   1.294   1_554  A
O720       Cr727   2.093       .  S
O721        C722   1.246       .  A
O721       Cr727   1.984       .  S
C722        N773   1.442   1_565  S
C722        O723   1.246       .  A
O723       Cr728   1.930       .  S
O724       Cr728   1.975   1_545  S
Cr726      O1508   1.975   1_455  S
Cr726       O729   1.732       .  S
Cr727       O729   1.799       .  S
Cr728      O1515   2.084   1_455  S
Cr728       O729   1.732       .  S
N730        C734   1.374       .  A
N730        C731   1.368       .  A
N730        C767   1.476       .  S
C731        C732   1.393       .  A
C732        C733   1.375       .  A
C732        H735   1.083       .  S
C733        C734   1.388       .  A
C733        H736   1.076       .  S
C734        C774   1.498   1_565  S
O737        C745   1.241       .  A
O737      Cr1555   1.959   1_565  S
O738        C739   1.282       .  A
C739        C784   1.476       .  S
C739        O740   1.251       .  A
O740       Cr756   1.956       .  S
O741        C742   1.276       .  A
O741       Cr756   2.063       .  S
C742        O743   1.232       .  A
O744        C745   1.291       .  A
O744      Cr1557   2.121       .  S
C745        N766   1.466       .  S
O746        C754   1.291       .  A
O746       Cr755   2.121   1_565  S
O747        C748   1.232       .  A
O747       Cr755   1.940       .  S
O749       Cr756   2.063       .  S
O750       Cr756   1.956       .  S
C751        C777   1.477       .  S
C751        O752   1.282   1_545  A
O752       Cr757   2.039       .  S
O753        C754   1.241       .  A
O753       Cr757   1.959       .  S
C754        N759   1.466       .  S
Cr755      O1537   1.959   1_445  S
Cr755       O758   1.719       .  S
Cr757      O1544   2.121   1_455  S
Cr757       O758   1.719   1_565  S
N759        C763   1.404       .  A
N759        C760   1.376       .  A
C760       N1487   1.476       .  S
C760        C761   1.402   1_455  A
C761        C762   1.354       .  A
C761        H764   1.082       .  S
C762        C763   1.367   1_655  A
C762        H765   1.083       .  S
N766        C770   1.404       .  A
N766        C767   1.376       .  A
C767        C768   1.402       .  A
C768        C769   1.354       .  A
C768        H771   1.082       .  S
C769        C770   1.367       .  A
C769        H772   1.083       .  S
N773        C777   1.353       .  A
N773        C774   1.360       .  A
C774        C775   1.392       .  A
C775        C776   1.377       .  A
C775        H778   1.082       .  S
C776        C777   1.374       .  A
C776        H779   1.081       .  S
N780       C1584   1.353       .  A
N780        C781   1.360       .  A
C781       C1582   1.392       .  A
C782       C1581   1.392       .  A
C782        C783   1.377       .  A
C782        H785   1.082       .  S
C783        C784   1.374       .  A
C783        H786   1.081       .  S
C784       N1580   1.353       .  A
N787        C788   1.360       .  A
C789       C1590   1.377       .  A
C789        H792   1.082       .  S
C790       C1589   1.377       .  A
C790       C1591   1.374       .  A
C790        H793   1.081       .  S
C791       C1590   1.374       .  A
N794        C798   1.353       .  A
N794        C795   1.360       .  A
C795        C796   1.392       .  A
C796        C797   1.377       .  A
C796        H799   1.082       .  S
C797        C798   1.374       .  A
C797        H800   1.081       .  S
N801       C1205   1.368       .  A
N801        C802   1.374       .  A
N801        C809   1.476       .  S
C802        C995   1.497       .  S
C802       C1203   1.388       .  A
C803       C1202   1.388   1_545  A
C803        C804   1.375       .  A
C803        H806   1.076       .  S
C804        C805   1.393       .  A
C804        H807   1.083       .  S
C805       N1201   1.368   1_545  A
C805       C1252   1.509   1_545  S
N808        C812   1.404       .  A
N808        C809   1.376       .  A
N808        C839   1.466       .  S
C809        C810   1.402       .  A
C810        C811   1.354       .  A
C810        H813   1.082       .  S
C811        C812   1.367       .  A
C811        H814   1.083       .  S
C812       C1119   1.515       .  S
N815        C819   1.404   1_655  A
N815        C816   1.376   1_655  A
N815        C830   1.466       .  S
C816        C817   1.402       .  A
C817        C818   1.354       .  A
C818        C819   1.367       .  A
C818        H821   1.083       .  S
C819        C876   1.515   1_455  S
O822        C830   1.241   1_455  A
O822      Cr1240   1.959   1_445  S
O823        C824   1.282       .  A
O823       Cr840   2.039       .  S
C824        C998   1.476       .  S
C824        O825   1.251       .  A
O825       Cr841   1.956       .  S
O826        C827   1.276   1_554  A
O826       Cr841   2.063       .  S
C827       C1105   1.496       .  S
C827       O1028   1.232       .  A
O828       C1027   1.232       .  A
O829       C1230   1.291       .  A
C830       O1229   1.291   1_545  A
O831        C839   1.291       .  A
O832        C833   1.232       .  A
O832       Cr840   1.940       .  S
C833        C862   1.496       .  S
C833        O834   1.276       .  A
O834       Cr841   2.063       .  S
O835       Cr841   1.956       .  S
C836        C991   1.476       .  S
C836        O837   1.282       .  A
O837       Cr842   2.039       .  S
O838        C839   1.241       .  A
O838       Cr842   1.959       .  S
Cr840      O1222   1.959   1_655  S
Cr840       O843   1.719       .  S
Cr841       O843   1.777       .  S
N844        C848   1.374       .  A
N844       C1045   1.368       .  A
C845       N1044   1.368       .  A
C845        C895   1.509       .  S
C845        C846   1.393       .  A
C846        C847   1.375       .  A
C846        H849   1.083       .  S
C847       C1048   1.388       .  A
C847        H850   1.076       .  S
C848       C1188   1.498       .  S
C848       C1047   1.388       .  A
N851        C855   1.389       .  A
N851        C852   1.360       .  A
N851        C882   1.459       .  S
C852       C1205   1.509       .  S
C852        C853   1.399       .  A
C853        C854   1.368       .  A
C853        H856   1.081       .  S
C854        C855   1.373       .  A
C854        H857   1.083       .  S
C855        C948   1.496       .  S
N858        C862   1.389       .  A
N858        C859   1.360       .  A
N858        C873   1.458       .  S
C859        C891   1.509       .  S
C859        C860   1.399       .  A
C860        C861   1.368       .  A
C860        H863   1.081   1_655  S
C861        C862   1.373       .  A
C861        H864   1.083       .  S
O865        C873   1.240       .  A
O865       Cr883   1.975       .  S
O866        C867   1.246       .  A
O866       Cr883   1.930       .  S
C867        N994   1.442       .  S
C867       O1268   1.246       .  A
O868       C1267   1.246       .  A
O868       Cr884   1.984   1_565  S
O869        C870   1.294   1_545  A
O869       Cr884   2.093       .  S
C870       C1370   1.515       .  S
C870       O1271   1.262       .  A
O871       C1270   1.262       .  A
O871       Cr885   1.966   1_655  S
O872        C873   1.276       .  A
O872       Cr885   2.084   1_655  S
O874        C882   1.276       .  A
O875        C876   1.262   1_455  A
O875      Cr1283   1.966   1_445  S
C876        O877   1.294       .  A
O877       Cr884   2.093       .  S
O878        C879   1.246       .  A
O878       Cr884   1.984   1_455  S
C879        N980   1.442       .  S
C879        O880   1.246       .  A
O880      Cr1285   1.929       .  S
O881        C882   1.240       .  A
Cr883      O1275   1.966   1_655  S
Cr883      O1286   1.732       .  S
Cr884       O886   1.799       .  S
Cr885      O1280   1.929       .  S
Cr885      O1286   1.732   1_455  S
O886      Cr1283   1.732   1_545  S
O886      Cr1285   1.732   1_655  S
N887        C891   1.368   1_455  A
N887        C888   1.374       .  A
C888        C981   1.497       .  S
C888        C889   1.388   1_455  A
C889        C890   1.375       .  A
C889        H892   1.076       .  S
C890        C891   1.393       .  A
C890        H893   1.083       .  S
N894        C898   1.389       .  A
N894        C895   1.360       .  A
N894        C925   1.458       .  S
C895        C896   1.399       .  A
C896        C897   1.368       .  A
C896        H899   1.081       .  S
C897        C898   1.373       .  A
C897        H900   1.083       .  S
C898        C942   1.496       .  S
N901        C905   1.389       .  A
N901        C902   1.360       .  A
N901        C916   1.458       .  S
C902        C931   1.509       .  S
C902        C903   1.399       .  A
C903        C904   1.368       .  A
C903        H906   1.081       .  S
C904        C905   1.373       .  A
C904        H907   1.083       .  S
C905       C1027   1.496       .  S
O908        C916   1.240       .  A
O909        C910   1.246       .  A
O909       Cr926   1.930       .  S
C910        N987   1.442       .  S
C910        O911   1.246       .  A
O911       Cr927   1.984       .  S
O912        C913   1.294       .  A
O912       Cr927   2.093       .  S
C913        C963   1.515       .  S
C913        O914   1.262       .  A
O914       Cr928   1.966       .  S
O915        C916   1.276       .  A
O917       C1325   1.276       .  A
O917       Cr926   2.084       .  S
O918        C919   1.262       .  A
O918       Cr926   1.966       .  S
C919       C1012   1.515       .  S
C919        O920   1.294       .  A
O920       Cr927   2.093       .  S
O921        C922   1.246       .  A
O921       Cr927   1.984       .  S
C922        N973   1.442       .  S
C922        O923   1.246       .  A
O923       Cr928   1.930       .  S
O924       C1325   1.240       .  A
O924       Cr928   1.975       .  S
C925       O1317   1.276   1_545  A
C925       O1324   1.240       .  A
Cr926       O929   1.732       .  S
Cr927       O929   1.799       .  S
Cr928       O929   1.732       .  S
N930        C934   1.374       .  A
N930        C931   1.368       .  A
N930        C967   1.476       .  S
C931        C932   1.393       .  A
C932        C933   1.375       .  A
C932        H935   1.083       .  S
C933        C934   1.388       .  A
C933        H936   1.076       .  S
C934        C974   1.498       .  S
O937        C945   1.241       .  A
O938        C939   1.282       .  A
O938      Cr1355   2.039       .  S
C939        C984   1.476       .  S
C939        O940   1.251       .  A
O940       Cr956   1.956       .  S
O941        C942   1.276       .  A
O941       Cr956   2.063       .  S
C942        O943   1.232       .  A
O943      Cr1357   1.940   1_545  S
O944        C945   1.291       .  A
C945        N966   1.466       .  S
O946        C954   1.291       .  A
O946       Cr955   2.121       .  S
O947        C948   1.232       .  A
O947       Cr955   1.940       .  S
C948       O1349   1.276       .  A
O949       C1348   1.276       .  A
O949       Cr956   2.063       .  S
O950       C1351   1.251       .  A
O950       Cr956   1.956       .  S
C951        C977   1.477       .  S
C951       O1350   1.251       .  A
C951        O952   1.282       .  A
O952       Cr957   2.039       .  S
O953        C954   1.241       .  A
O953       Cr957   1.959       .  S
C954        N959   1.466       .  S
Cr955      O1338   2.039       .  S
Cr955       O958   1.719       .  S
Cr956      O1358   1.777       .  S
Cr957      O1343   1.940       .  S
Cr957       O958   1.719       .  S
O958      Cr1356   1.777       .  S
N959        C963   1.404       .  A
N959        C960   1.376       .  A
C960        C961   1.402       .  A
C961        C962   1.354       .  A
C961        H964   1.082       .  S
C962        C963   1.367       .  A
C962        H965   1.083       .  S
N966        C970   1.404       .  A
N966        C967   1.376       .  A
C967        C968   1.402       .  A
C968        C969   1.354       .  A
C968        H971   1.082       .  S
C969        C970   1.367       .  A
C969        H972   1.083       .  S
C970       C1270   1.515       .  S
N973        C977   1.353       .  A
N973        C974   1.360       .  A
C974        C975   1.392       .  A
C975        C976   1.377       .  A
C975        H978   1.082       .  S
C976        C977   1.374       .  A
C976        H979   1.081       .  S
N980        C981   1.360       .  A
C982        C983   1.377       .  A
C982        H985   1.082       .  S
C983        C984   1.374       .  A
C983        H986   1.081       .  S
N987       C1191   1.353       .  A
N987        C988   1.360       .  A
C988       C1048   1.498       .  S
C988       C1189   1.392       .  A
C989       C1188   1.392   1_554  A
C989        H992   1.082       .  S
C990        H993   1.081       .  S
C991       N1187   1.353   1_554  A
N994        C998   1.353       .  A
N994        C995   1.360       .  A
C995        C996   1.392       .  A
C996        C997   1.377       .  A
C996        H999   1.082       .  S
C997        C998   1.374       .  A
C997       H1000   1.081       .  S
N1001      C1405   1.368       .  A
N1001      C1002   1.374       .  A
N1001      C1009   1.476       .  S
C1002      C1195   1.497       .  S
C1002      C1403   1.388       .  A
C1003      C1402   1.388   1_545  A
C1003      C1004   1.375       .  A
C1003      H1006   1.076       .  S
C1004      C1005   1.393       .  A
C1004      H1007   1.083       .  S
C1005      N1401   1.368   1_545  A
C1005      C1452   1.509   1_545  S
N1008      C1012   1.404       .  A
N1008      C1009   1.376       .  A
N1008      C1039   1.466       .  S
C1009      C1010   1.402       .  A
C1010      C1011   1.354       .  A
C1010      H1013   1.082       .  S
C1011      C1012   1.367       .  A
C1011      H1014   1.083       .  S
N1015      C1019   1.404   1_655  A
N1015      C1016   1.376   1_655  A
N1015      C1030   1.466       .  S
C1016      C1017   1.402       .  A
C1017      C1018   1.354       .  A
C1018      C1019   1.367       .  A
C1018      H1021   1.083       .  S
C1019      C1076   1.515   1_455  S
O1022      C1030   1.241   1_455  A
O1022     Cr1440   1.959   1_445  S
O1023      C1024   1.282       .  A
O1023     Cr1040   2.039       .  S
C1024      C1198   1.476       .  S
C1024      O1025   1.251       .  A
O1025     Cr1041   1.956       .  S
O1026      C1027   1.276       .  A
O1026     Cr1041   2.063       .  S
O1029      C1430   1.291       .  A
C1030      O1429   1.291   1_545  A
O1031      C1039   1.291       .  A
O1032      C1033   1.232       .  A
O1032     Cr1040   1.940       .  S
C1033      C1062   1.496       .  S
C1033      O1034   1.276       .  A
O1034     Cr1041   2.063       .  S
O1035     Cr1041   1.956       .  S
C1036      C1191   1.476       .  S
C1036      O1037   1.282       .  A
O1037     Cr1042   2.039       .  S
O1038      C1039   1.241       .  A
O1038     Cr1042   1.959       .  S
Cr1040     O1422   1.959   1_655  S
Cr1040     O1043   1.719       .  S
Cr1041     O1043   1.777       .  S
N1044      C1048   1.374       .  A
C1045      C1095   1.509       .  S
C1045      C1046   1.393       .  A
C1046      C1047   1.375       .  A
C1046      H1049   1.083       .  S
C1047      H1050   1.076       .  S
N1051      C1055   1.389       .  A
N1051      C1052   1.360       .  A
N1051      C1082   1.459       .  S
C1052      C1405   1.509       .  S
C1052      C1053   1.399       .  A
C1053      C1054   1.368       .  A
C1053      H1056   1.081       .  S
C1054      C1055   1.373       .  A
C1054      H1057   1.083       .  S
C1055      C1148   1.496       .  S
N1058      C1062   1.389       .  A
N1058      C1059   1.360       .  A
N1058      C1073   1.458       .  S
C1059      C1091   1.509       .  S
C1059      C1060   1.399       .  A
C1060      C1061   1.368       .  A
C1060      H1063   1.081   1_655  S
C1061      C1062   1.373       .  A
C1061      H1064   1.083       .  S
O1065      C1073   1.240       .  A
O1065     Cr1083   1.975       .  S
O1066      C1067   1.246       .  A
O1066     Cr1083   1.930       .  S
C1067      N1194   1.442       .  S
C1067      O1468   1.246       .  A
O1068      C1467   1.246       .  A
O1068     Cr1084   1.984   1_565  S
O1069      C1070   1.294   1_545  A
O1069     Cr1084   2.093       .  S
C1070      C1570   1.515       .  S
C1070      O1471   1.262       .  A
O1071      C1470   1.262       .  A
O1071     Cr1085   1.966   1_655  S
O1072      C1073   1.276       .  A
O1072     Cr1085   2.084   1_655  S
O1074      C1082   1.276       .  A
O1075      C1076   1.262   1_455  A
O1075     Cr1483   1.966   1_445  S
C1076      O1077   1.294       .  A
O1077     Cr1084   2.093       .  S
O1078      C1079   1.246       .  A
O1078     Cr1084   1.984   1_455  S
C1079      N1180   1.442       .  S
C1079      O1080   1.246       .  A
O1080     Cr1485   1.929       .  S
O1081      C1082   1.240       .  A
Cr1083     O1475   1.966   1_655  S
Cr1083     O1486   1.732       .  S
Cr1084     O1086   1.799       .  S
Cr1085     O1480   1.929       .  S
Cr1085     O1486   1.732   1_455  S
O1086     Cr1483   1.732   1_545  S
O1086     Cr1485   1.732   1_655  S
N1087      C1091   1.368   1_455  A
N1087      C1088   1.374       .  A
C1088      C1181   1.497       .  S
C1088      C1089   1.388   1_455  A
C1089      C1090   1.375       .  A
C1089      H1092   1.076       .  S
C1090      C1091   1.393       .  A
C1090      H1093   1.083       .  S
N1094      C1098   1.389       .  A
N1094      C1095   1.360       .  A
N1094      C1125   1.458       .  S
C1095      C1096   1.399       .  A
C1096      C1097   1.368       .  A
C1096      H1099   1.081       .  S
C1097      C1098   1.373       .  A
C1097      H1100   1.083       .  S
C1098      C1142   1.496       .  S
N1101      C1105   1.389       .  A
N1101      C1102   1.360       .  A
N1101      C1116   1.458       .  S
C1102      C1131   1.509       .  S
C1102      C1103   1.399       .  A
C1103      C1104   1.368       .  A
C1103      H1106   1.081       .  S
C1104      C1105   1.373       .  A
C1104      H1107   1.083       .  S
O1108      C1116   1.240       .  A
O1109      C1110   1.246       .  A
O1109     Cr1126   1.930       .  S
C1110      N1187   1.442       .  S
C1110      O1111   1.246       .  A
O1111     Cr1127   1.984       .  S
O1112      C1113   1.294       .  A
O1112     Cr1127   2.093       .  S
C1113      C1163   1.515       .  S
C1113      O1114   1.262       .  A
O1114     Cr1128   1.966       .  S
O1115      C1116   1.276       .  A
O1117      C1525   1.276       .  A
O1117     Cr1126   2.084       .  S
O1118      C1119   1.262   1_556  A
O1118     Cr1126   1.966       .  S
C1119      O1120   1.294   1_554  A
O1120     Cr1127   2.093       .  S
O1121      C1122   1.246       .  A
O1121     Cr1127   1.984       .  S
C1122      N1173   1.442       .  S
C1122      O1123   1.246       .  A
O1123     Cr1128   1.930       .  S
O1124      C1525   1.240       .  A
O1124     Cr1128   1.975       .  S
C1125      O1517   1.276   1_545  A
C1125      O1524   1.240       .  A
Cr1126     O1129   1.732       .  S
Cr1127     O1129   1.799       .  S
Cr1128     O1129   1.732       .  S
N1130      C1134   1.374       .  A
N1130      C1131   1.368       .  A
N1130      C1167   1.476       .  S
C1131      C1132   1.393       .  A
C1132      C1133   1.375       .  A
C1132      H1135   1.083       .  S
C1133      C1134   1.388       .  A
C1133      H1136   1.076       .  S
C1134      C1174   1.498       .  S
O1137      C1145   1.241       .  A
O1138      C1139   1.282       .  A
O1138     Cr1555   2.039       .  S
C1139      C1184   1.476       .  S
C1139      O1140   1.251       .  A
O1140     Cr1156   1.956       .  S
O1141      C1142   1.276       .  A
O1141     Cr1156   2.063       .  S
C1142      O1143   1.232       .  A
O1143     Cr1557   1.940   1_545  S
O1144      C1145   1.291       .  A
C1145      N1166   1.466       .  S
O1146      C1154   1.291       .  A
O1146     Cr1155   2.121       .  S
O1147      C1148   1.232       .  A
O1147     Cr1155   1.940       .  S
C1148      O1549   1.276       .  A
O1149      C1548   1.276       .  A
O1149     Cr1156   2.063       .  S
O1150      C1551   1.251       .  A
O1150     Cr1156   1.956       .  S
C1151      C1177   1.477       .  S
C1151      O1550   1.251       .  A
C1151      O1152   1.282       .  A
O1152     Cr1157   2.039       .  S
O1153      C1154   1.241       .  A
O1153     Cr1157   1.959       .  S
C1154      N1159   1.466       .  S
Cr1155     O1538   2.039       .  S
Cr1155     O1158   1.719       .  S
Cr1156     O1558   1.777       .  S
Cr1157     O1543   1.940       .  S
Cr1157     O1158   1.719       .  S
O1158     Cr1556   1.777       .  S
N1159      C1163   1.404       .  A
N1159      C1160   1.376       .  A
C1160      C1161   1.402       .  A
C1161      C1162   1.354       .  A
C1161      H1164   1.082       .  S
C1162      C1163   1.367       .  A
C1162      H1165   1.083       .  S
N1166      C1170   1.404       .  A
N1166      C1167   1.376       .  A
C1167      C1168   1.402       .  A
C1168      C1169   1.354       .  A
C1168      H1171   1.082       .  S
C1169      C1170   1.367       .  A
C1169      H1172   1.083       .  S
C1170      C1470   1.515       .  S
N1173      C1177   1.353       .  A
N1173      C1174   1.360       .  A
C1174      C1175   1.392       .  A
C1175      C1176   1.377       .  A
C1175      H1178   1.082       .  S
C1176      C1177   1.374       .  A
C1176      H1179   1.081       .  S
N1180      C1181   1.360       .  A
C1182      C1183   1.377       .  A
C1182      H1185   1.082       .  S
C1183      C1184   1.374       .  A
C1183      H1186   1.081       .  S
N1187      C1188   1.360       .  A
C1189      H1192   1.082       .  S
C1190      H1193   1.081       .  S
N1194      C1198   1.353       .  A
N1194      C1195   1.360       .  A
C1195      C1196   1.392       .  A
C1196      C1197   1.377       .  A
C1196      H1199   1.082       .  S
C1197      C1198   1.374       .  A
C1197      H1200   1.081       .  S
N1201      C1202   1.374       .  A
N1201      C1209   1.476       .  S
C1202      C1395   1.497       .  S
C1203      C1204   1.375       .  A
C1203      H1206   1.076       .  S
C1204      C1205   1.393       .  A
C1204      H1207   1.083       .  S
N1208      C1212   1.404       .  A
N1208      C1209   1.376       .  A
N1208      C1239   1.466       .  S
C1209      C1210   1.402       .  A
C1210      C1211   1.354       .  A
C1210      H1213   1.082       .  S
C1211      C1212   1.367       .  A
C1211      H1214   1.083       .  S
C1212      C1519   1.515       .  S
N1215      C1219   1.404   1_655  A
N1215      C1216   1.376   1_655  A
N1215      C1230   1.466       .  S
C1216      C1217   1.402       .  A
C1217      C1218   1.354       .  A
C1218      C1219   1.367       .  A
C1218      H1221   1.083       .  S
C1219      C1276   1.515   1_455  S
O1222      C1230   1.241   1_455  A
O1223      C1224   1.282       .  A
O1223     Cr1240   2.039       .  S
C1224      C1398   1.476       .  S
C1224      O1225   1.251       .  A
O1225     Cr1241   1.956       .  S
O1226      C1227   1.276   1_554  A
O1226     Cr1241   2.063       .  S
C1227      C1505   1.496       .  S
C1227      O1428   1.232       .  A
O1228      C1427   1.232       .  A
O1231      C1239   1.291       .  A
O1232      C1233   1.232       .  A
O1232     Cr1240   1.940       .  S
C1233      C1262   1.496       .  S
C1233      O1234   1.276       .  A
O1234     Cr1241   2.063       .  S
O1235     Cr1241   1.956       .  S
C1236      C1391   1.476       .  S
C1236      O1237   1.282       .  A
O1237     Cr1242   2.039       .  S
O1238      C1239   1.241       .  A
O1238     Cr1242   1.959       .  S
Cr1240     O1243   1.719       .  S
Cr1241     O1243   1.777       .  S
N1244      C1248   1.374       .  A
N1244      C1445   1.368       .  A
C1245      N1444   1.368       .  A
C1245      C1295   1.509       .  S
C1245      C1246   1.392       .  A
C1246      C1247   1.375       .  A
C1246      H1249   1.083       .  S
C1247      C1448   1.388       .  A
C1247      H1250   1.076       .  S
C1248      C1588   1.498       .  S
C1248      C1447   1.388       .  A
N1251      C1255   1.389       .  A
N1251      C1252   1.360   1_545  A
N1251      C1282   1.459       .  S
C1252      C1253   1.399       .  A
C1253      C1254   1.368   1_565  A
C1253      H1256   1.081       .  S
C1254      C1255   1.373       .  A
C1254      H1257   1.083   1_545  S
C1255      C1348   1.496       .  S
N1258      C1262   1.389       .  A
N1258      C1259   1.360       .  A
N1258      C1273   1.458       .  S
C1259      C1291   1.509       .  S
C1259      C1260   1.399       .  A
C1260      C1261   1.368       .  A
C1260      H1263   1.081   1_655  S
C1261      C1262   1.373       .  A
C1261      H1264   1.083       .  S
O1265      C1273   1.240       .  A
O1265     Cr1283   1.975       .  S
O1266      C1267   1.246       .  A
O1266     Cr1283   1.930       .  S
C1267      N1394   1.442       .  S
O1268     Cr1284   1.984       .  S
O1269      C1270   1.294       .  A
O1269     Cr1284   2.093       .  S
O1271     Cr1285   1.966   1_665  S
O1272      C1273   1.276       .  A
O1272     Cr1285   2.084   1_665  S
O1274      C1282   1.276   1_565  A
O1275      C1276   1.262   1_455  A
C1276      O1277   1.294       .  A
O1277     Cr1284   2.093       .  S
O1278      C1279   1.246       .  A
O1278     Cr1284   1.984   1_455  S
C1279      N1380   1.442       .  S
C1279      O1280   1.246       .  A
O1281      C1282   1.240       .  A
Cr1284     O1286   1.799       .  S
N1287      C1291   1.368   1_455  A
N1287      C1288   1.374       .  A
C1288      C1381   1.497       .  S
C1288      C1289   1.388   1_455  A
C1289      C1290   1.375       .  A
C1289      H1292   1.076       .  S
C1290      C1291   1.393       .  A
C1290      H1293   1.083       .  S
N1294      C1298   1.389       .  A
N1294      C1295   1.360       .  A
N1294      C1325   1.458       .  S
C1295      C1296   1.399       .  A
C1296      C1297   1.368       .  A
C1296      H1299   1.081       .  S
C1297      C1298   1.373       .  A
C1297      H1300   1.083       .  S
C1298      C1342   1.496       .  S
N1301      C1305   1.389       .  A
N1301      C1302   1.360       .  A
N1301      C1316   1.458       .  S
C1302      C1331   1.509       .  S
C1302      C1303   1.399       .  A
C1303      C1304   1.368       .  A
C1303      H1306   1.081       .  S
C1304      C1305   1.373       .  A
C1304      H1307   1.083       .  S
C1305      C1427   1.496       .  S
O1308      C1316   1.240       .  A
O1309      C1310   1.246       .  A
O1309     Cr1326   1.930       .  S
C1310      N1387   1.442       .  S
C1310      O1311   1.246       .  A
O1311     Cr1327   1.984       .  S
O1312      C1313   1.294       .  A
O1312     Cr1327   2.093       .  S
C1313      C1363   1.515       .  S
C1313      O1314   1.262       .  A
O1314     Cr1328   1.966       .  S
O1315      C1316   1.276       .  A
O1317     Cr1326   2.084       .  S
O1318      C1319   1.262       .  A
O1318     Cr1326   1.966       .  S
C1319      C1412   1.515       .  S
C1319      O1320   1.294       .  A
O1320     Cr1327   2.093       .  S
O1321      C1322   1.246       .  A
O1321     Cr1327   1.984       .  S
C1322      N1373   1.442   1_565  S
C1322      O1323   1.246       .  A
O1323     Cr1328   1.930       .  S
O1324     Cr1328   1.975   1_545  S
Cr1326     O1329   1.732       .  S
Cr1327     O1329   1.799       .  S
Cr1328     O1329   1.732       .  S
N1330      C1334   1.374       .  A
N1330      C1331   1.368       .  A
N1330      C1367   1.476       .  S
C1331      C1332   1.393       .  A
C1332      C1333   1.375       .  A
C1332      H1335   1.083       .  S
C1333      C1334   1.388       .  A
C1333      H1336   1.076       .  S
C1334      C1374   1.498   1_565  S
O1337      C1345   1.241       .  A
O1338      C1339   1.282       .  A
C1339      C1384   1.476       .  S
C1339      O1340   1.251       .  A
O1340     Cr1356   1.956       .  S
O1341      C1342   1.276       .  A
O1341     Cr1356   2.063       .  S
C1342      O1343   1.232       .  A
O1344      C1345   1.291       .  A
C1345      N1366   1.466       .  S
O1346      C1354   1.291       .  A
O1346     Cr1355   2.121   1_565  S
O1347      C1348   1.232       .  A
O1347     Cr1355   1.940       .  S
O1349     Cr1356   2.063       .  S
O1350     Cr1356   1.956       .  S
C1351      C1377   1.477       .  S
C1351      O1352   1.282   1_545  A
O1352     Cr1357   2.039       .  S
O1353      C1354   1.241       .  A
O1353     Cr1357   1.959       .  S
C1354      N1359   1.466       .  S
Cr1355     O1358   1.719       .  S
Cr1357     O1358   1.719   1_565  S
N1359      C1363   1.404       .  A
N1359      C1360   1.376       .  A
C1360      C1361   1.402       .  A
C1361      C1362   1.354       .  A
C1361      H1364   1.082       .  S
C1362      C1363   1.367       .  A
C1362      H1365   1.083       .  S
N1366      C1370   1.404       .  A
N1366      C1367   1.376       .  A
C1367      C1368   1.402       .  A
C1368      C1369   1.354       .  A
C1368      H1371   1.082       .  S
C1369      C1370   1.367       .  A
C1369      H1372   1.083       .  S
N1373      C1377   1.353       .  A
N1373      C1374   1.360       .  A
C1374      C1375   1.392       .  A
C1375      C1376   1.377       .  A
C1375      H1378   1.082       .  S
C1376      C1377   1.374       .  A
C1376      H1379   1.081       .  S
N1380      C1381   1.360       .  A
C1382      C1383   1.377       .  A
C1382      H1385   1.082       .  S
C1383      C1384   1.374       .  A
C1383      H1386   1.081       .  S
N1387      C1591   1.353       .  A
N1387      C1388   1.360       .  A
C1388      C1448   1.498       .  S
C1388      C1589   1.392       .  A
C1389      C1588   1.392   1_554  A
C1389      H1392   1.082       .  S
C1390      H1393   1.081       .  S
C1391      N1587   1.353   1_554  A
N1394      C1398   1.353       .  A
N1394      C1395   1.360       .  A
C1395      C1396   1.392       .  A
C1396      C1397   1.377       .  A
C1396      H1399   1.082       .  S
C1397      C1398   1.374       .  A
C1397      H1400   1.081       .  S
N1401      C1402   1.374       .  A
N1401      C1409   1.476       .  S
C1402      C1595   1.497       .  S
C1403      C1404   1.375       .  A
C1403      H1406   1.076       .  S
C1404      C1405   1.393       .  A
C1404      H1407   1.083       .  S
N1408      C1412   1.404       .  A
N1408      C1409   1.376       .  A
N1408      C1439   1.466       .  S
C1409      C1410   1.402       .  A
C1410      C1411   1.354       .  A
C1410      H1413   1.082       .  S
C1411      C1412   1.367       .  A
C1411      H1414   1.083       .  S
N1415      C1419   1.404   1_655  A
N1415      C1416   1.376   1_655  A
N1415      C1430   1.466       .  S
C1416      C1417   1.402       .  A
C1417      C1418   1.354       .  A
C1418      C1419   1.367       .  A
C1418      H1421   1.083       .  S
C1419      C1476   1.515   1_455  S
O1422      C1430   1.241   1_455  A
O1423      C1424   1.282       .  A
O1423     Cr1440   2.039       .  S
C1424      C1598   1.476       .  S
C1424      O1425   1.251       .  A
O1425     Cr1441   1.956       .  S
O1426      C1427   1.276       .  A
O1426     Cr1441   2.063       .  S
O1431      C1439   1.291       .  A
O1432      C1433   1.232       .  A
O1432     Cr1440   1.940       .  S
C1433      C1462   1.496       .  S
C1433      O1434   1.276       .  A
O1434     Cr1441   2.063       .  S
O1435     Cr1441   1.956       .  S
C1436      C1591   1.476       .  S
C1436      O1437   1.282       .  A
O1437     Cr1442   2.039       .  S
O1438      C1439   1.241       .  A
O1438     Cr1442   1.959       .  S
Cr1440     O1443   1.719       .  S
Cr1441     O1443   1.777       .  S
N1444      C1448   1.374       .  A
C1445      C1495   1.509       .  S
C1445      C1446   1.393       .  A
C1446      C1447   1.375       .  A
C1446      H1449   1.083       .  S
C1447      H1450   1.076       .  S
N1451      C1455   1.389       .  A
N1451      C1452   1.360   1_545  A
N1451      C1482   1.459       .  S
C1452      C1453   1.399       .  A
C1453      C1454   1.368   1_565  A
C1453      H1456   1.081       .  S
C1454      C1455   1.373       .  A
C1454      H1457   1.083   1_545  S
C1455      C1548   1.496       .  S
N1458      C1462   1.389       .  A
N1458      C1459   1.360       .  A
N1458      C1473   1.458       .  S
C1459      C1491   1.509       .  S
C1459      C1460   1.399       .  A
C1460      C1461   1.368       .  A
C1460      H1463   1.081   1_655  S
C1461      C1462   1.373       .  A
C1461      H1464   1.083       .  S
O1465      C1473   1.240       .  A
O1465     Cr1483   1.975       .  S
O1466      C1467   1.246       .  A
O1466     Cr1483   1.930       .  S
C1467      N1594   1.442       .  S
O1468     Cr1484   1.984       .  S
O1469      C1470   1.294       .  A
O1469     Cr1484   2.093       .  S
O1471     Cr1485   1.966   1_665  S
O1472      C1473   1.276       .  A
O1472     Cr1485   2.084   1_665  S
O1474      C1482   1.276   1_565  A
O1475      C1476   1.262   1_455  A
C1476      O1477   1.294       .  A
O1477     Cr1484   2.093       .  S
O1478      C1479   1.246       .  A
O1478     Cr1484   1.984   1_455  S
C1479      N1580   1.442       .  S
C1479      O1480   1.246       .  A
O1481      C1482   1.240       .  A
Cr1484     O1486   1.799       .  S
N1487      C1491   1.368   1_455  A
N1487      C1488   1.374       .  A
C1488      C1581   1.497       .  S
C1488      C1489   1.388   1_455  A
C1489      C1490   1.375       .  A
C1489      H1492   1.076       .  S
C1490      C1491   1.393       .  A
C1490      H1493   1.083       .  S
N1494      C1498   1.389       .  A
N1494      C1495   1.360       .  A
N1494      C1525   1.458       .  S
C1495      C1496   1.399       .  A
C1496      C1497   1.368       .  A
C1496      H1499   1.081       .  S
C1497      C1498   1.373       .  A
C1497      H1500   1.083       .  S
C1498      C1542   1.496       .  S
N1501      C1505   1.389       .  A
N1501      C1502   1.360       .  A
N1501      C1516   1.458       .  S
C1502      C1531   1.509       .  S
C1502      C1503   1.399       .  A
C1503      C1504   1.368       .  A
C1503      H1506   1.081       .  S
C1504      C1505   1.373       .  A
C1504      H1507   1.083       .  S
O1508      C1516   1.240       .  A
O1509      C1510   1.246       .  A
O1509     Cr1526   1.930       .  S
C1510      N1587   1.442       .  S
C1510      O1511   1.246       .  A
O1511     Cr1527   1.984       .  S
O1512      C1513   1.294       .  A
O1512     Cr1527   2.093       .  S
C1513      C1563   1.515       .  S
C1513      O1514   1.262       .  A
O1514     Cr1528   1.966       .  S
O1515      C1516   1.276       .  A
O1517     Cr1526   2.084       .  S
O1518      C1519   1.262   1_556  A
O1518     Cr1526   1.966       .  S
C1519      O1520   1.294   1_554  A
O1520     Cr1527   2.093       .  S
O1521      C1522   1.246       .  A
O1521     Cr1527   1.984       .  S
C1522      N1573   1.442   1_565  S
C1522      O1523   1.246       .  A
O1523     Cr1528   1.930       .  S
O1524     Cr1528   1.975   1_545  S
Cr1526     O1529   1.732       .  S
Cr1527     O1529   1.799       .  S
Cr1528     O1529   1.732       .  S
N1530      C1534   1.374       .  A
N1530      C1531   1.368       .  A
N1530      C1567   1.476       .  S
C1531      C1532   1.393       .  A
C1532      C1533   1.375       .  A
C1532      H1535   1.083       .  S
C1533      C1534   1.388       .  A
C1533      H1536   1.076       .  S
C1534      C1574   1.498   1_565  S
O1537      C1545   1.241       .  A
O1538      C1539   1.282       .  A
C1539      C1584   1.476       .  S
C1539      O1540   1.251       .  A
O1540     Cr1556   1.956       .  S
O1541      C1542   1.276       .  A
O1541     Cr1556   2.063       .  S
C1542      O1543   1.232       .  A
O1544      C1545   1.291       .  A
C1545      N1566   1.466       .  S
O1546      C1554   1.291       .  A
O1546     Cr1555   2.121   1_565  S
O1547      C1548   1.232       .  A
O1547     Cr1555   1.940       .  S
O1549     Cr1556   2.063       .  S
O1550     Cr1556   1.956       .  S
C1551      C1577   1.477       .  S
C1551      O1552   1.282   1_545  A
O1552     Cr1557   2.039       .  S
O1553      C1554   1.241       .  A
O1553     Cr1557   1.959       .  S
C1554      N1559   1.466       .  S
Cr1555     O1558   1.719       .  S
Cr1557     O1558   1.719   1_565  S
N1559      C1563   1.404       .  A
N1559      C1560   1.376       .  A
C1560      C1561   1.402       .  A
C1561      C1562   1.354       .  A
C1561      H1564   1.082       .  S
C1562      C1563   1.367       .  A
C1562      H1565   1.083       .  S
N1566      C1570   1.404       .  A
N1566      C1567   1.376       .  A
C1567      C1568   1.402       .  A
C1568      C1569   1.354       .  A
C1568      H1571   1.082       .  S
C1569      C1570   1.367       .  A
C1569      H1572   1.083       .  S
N1573      C1577   1.353       .  A
N1573      C1574   1.360       .  A
C1574      C1575   1.392       .  A
C1575      C1576   1.377       .  A
C1575      H1578   1.082       .  S
C1576      C1577   1.374       .  A
C1576      H1579   1.081       .  S
N1580      C1581   1.360       .  A
C1582      C1583   1.377       .  A
C1582      H1585   1.082       .  S
C1583      C1584   1.374       .  A
C1583      H1586   1.081       .  S
N1587      C1588   1.360       .  A
C1589      H1592   1.082       .  S
C1590      H1593   1.081       .  S
N1594      C1598   1.353       .  A
N1594      C1595   1.360       .  A
C1595      C1596   1.392       .  A
C1596      C1597   1.377       .  A
C1596      H1599   1.082       .  S
C1597      C1598   1.374       .  A
C1597      H1600   1.081       .  S
