geometry optimzed in LAMMPS
_audit_creation_date              2020-12-01 
_audit_creation_method            'lammps2cif' 
_symmetry_space_group_name_H-M    'P1' 
_symmetry_Int_Tables_number       1 
_symmetry_cell_setting            triclinic 
loop_ 
_symmetry_equiv_pos_as_xyz 
  x,y,z 
_cell_length_a                    43.6836899 
_cell_length_b                    43.51588601030171 
_cell_length_c                    43.48026095833212 
_cell_angle_alpha                 90.02690120453298 
_cell_angle_beta                  90.01262930828808 
_cell_angle_gamma                 89.99464160081095 
loop_ 
_atom_site_label 
_atom_site_type_symbol 
_atom_site_fract_x 
_atom_site_fract_y 
_atom_site_fract_z 
_atom_site_charge 
O1          O  0.41495357  0.00064373  0.19898306    -0.75100
O2          O  0.45272376  0.00039634  0.16286273    -0.54000
C3          C  0.42439748  0.00070376  0.17090886     0.78600
O4          O  0.50134765  0.08566249  0.30269904    -0.59700
O5          O  0.49940854  0.04763911  0.33866242    -0.52700
C6          C  0.50072030  0.07612119  0.33076417     0.70700
O7          O  0.49583575  0.08459235  0.19836155    -0.74200
O8          O  0.99855209  0.04779887  0.16380569    -0.54800
C9          C  0.49590210  0.07523351  0.17017781     0.76700
O10         O  0.41473997  0.99610444  0.30281341    -0.59400
O11         O  0.45238292  0.49732324  0.33971539    -0.52500
C12         C  0.42425058  0.99594777  0.33090199     0.73300
Zr13       Zr  0.43603237  0.99904053  0.25088396     2.54700
O14         O  0.39624256  0.03818042  0.25227100    -0.80000
O15         O  0.39520379  0.46098442  0.25116163    -0.93400
Zr16       Zr  0.49961810  0.06422092  0.25076824     2.64700
O17         O  0.46008055  0.10371786  0.25152503    -0.98300
O18         O  0.03948480  0.10388288  0.25320515    -0.80400
O19         O  0.46743424  0.03201829  0.22110712    -0.83400
O20         O  0.46710069  0.03233914  0.28075692    -2.18500
O21         O  0.00129303  0.41389308  0.30245517    -0.67100
O22         O  0.50032177  0.45190332  0.33916528    -0.51700
C23         C  0.00130013  0.42326592  0.33054592     0.71600
O24         O  0.08556105  0.50058289  0.19909941    -0.60000
O25         O  0.04860624  0.00098793  0.16402038    -0.52000
C26         C  0.07648306  0.50091652  0.17096721     0.73400
O27         O  0.08563378  0.50085598  0.30260768    -0.71400
O28         O  0.04784721  0.50008457  0.33861694    -0.50100
C29         C  0.07616862  0.50040454  0.33064047     0.74800
O30         O  0.00505830  0.41390145  0.19864993    -0.66800
O31         O  0.00300609  0.45197606  0.16283156    -0.54000
C32         C  0.00467911  0.42355751  0.17068860     0.73200
Zr33       Zr  0.00246808  0.43471327  0.25041708     2.77500
O34         O  0.04266059  0.39592108  0.25055725    -0.97500
O35         O  0.46186832  0.39589444  0.25133818    -0.78300
Zr36       Zr  0.06457396  0.50120845  0.25084268     2.70100
O37         O  0.10572170  0.46350272  0.25179611    -0.79600
O38         O  0.10103154  0.04170834  0.25128036    -0.98700
Zr39       Zr  0.00028513  0.00016097  0.19214461     2.21500
Zr40       Zr  0.49958249  0.49973602  0.31092565     2.11100
O41         O  0.03415442  0.46719402  0.28034631    -2.47400
O42         O  0.03425882  0.46750117  0.22079335    -0.79400
O43         O  0.46782414  0.46671700  0.28118505    -0.71600
O44         O  0.03285558  0.03286624  0.22162656    -2.32500
O45         O  0.46800642  0.46690959  0.22146741    -2.28700
O46         O  0.03269380  0.03261909  0.28159499    -0.73300
H47         H  0.45438488  0.04473910  0.29405022     0.78700
H48         H  0.04554949  0.04557079  0.20848126     0.79700
H49         H  0.04704120  0.45484982  0.29351232     0.82000
H50         H  0.45561475  0.45422446  0.20819056     0.79600
H51         H  0.05824394  0.09296072  0.25976572     0.42600
H52         H  0.09644828  0.05358665  0.27014428     0.41600
H53         H  0.09681747  0.44501603  0.24198059     0.41300
H54         H  0.05461494  0.39999604  0.26946730     0.39200
H55         H  0.44232896  0.40724823  0.25337527     0.42300
H56         H  0.40082483  0.44648403  0.23454481     0.37100
H57         H  0.40738763  0.05783551  0.24983363     0.43200
H58         H  0.44734864  0.09884324  0.26971534     0.39600
H59         H  0.03181601  0.37638727  0.25477798     0.44600
H60         H  0.37707277  0.47205879  0.24316492     0.43300
H61         H  0.47101390  0.12282314  0.25721348     0.43400
H62         H  0.12085001  0.03158887  0.25569547     0.43800
O63         O  0.49504382  0.19859592  0.08669312    -0.75100
O64         O  0.99880147  0.16143333  0.04863566    -0.54000
C65         C  0.49561106  0.17067552  0.07714458     0.78600
O66         O  0.41490435  0.30180046  0.99738398    -0.59700
O67         O  0.45254574  0.33787094  0.00038878    -0.52700
C68         C  0.42424508  0.32983134  0.99852369     0.70700
O69         O  0.41491603  0.19849544  0.99945272    -0.74200
O70         O  0.45262986  0.16237925  0.99973601    -0.54800
C71         C  0.42427667  0.17041927  0.99968209     0.76700
O72         O  0.49795370  0.30129828  0.08706401    -0.59400
O73         O  0.49894991  0.33764386  0.04945983    -0.52500
C74         C  0.49828357  0.32937227  0.07783398     0.73300
Zr75       Zr  0.49809169  0.24984216  0.06536019     2.54700
O76         O  0.45706573  0.24971568  0.10326052    -0.80000
O77         O  0.04010403  0.24376597  0.10339299    -0.93400
Zr78       Zr  0.43627518  0.25023185  0.99882825     2.64700
O79         O  0.39714945  0.25125014  0.03865150    -0.98300
O80         O  0.39480426  0.24864281  0.46408505    -0.80400
O81         O  0.46678708  0.22018183  0.03224301    -0.83700
O82         O  0.46645956  0.27989811  0.03296865    -2.18500
O83         O  0.08481299  0.30201825  0.50633818    -0.67100
O84         O  0.04731253  0.33681724  0.00355013    -0.51700
C85         C  0.07531387  0.33004463  0.50549116     0.71600
O86         O  0.00362650  0.19836207  0.41593292    -0.60000
O87         O  0.00127505  0.16189976  0.45352164    -0.52000
C88         C  0.00246636  0.17025158  0.42518766     0.73400
O89         O  0.00174424  0.30213472  0.41665992    -0.71400
O90         O  0.50036063  0.33733686  0.45313322    -0.50100
C91         C  0.00087849  0.33016983  0.42613888     0.74800
O92         O  0.08385159  0.19627516  0.99991372    -0.66800
O93         O  0.04618317  0.16012541  0.00020003    -0.54000
C94         C  0.07613740  0.17030081  0.50107139     0.73200
Zr95       Zr  0.06367451  0.24880651  0.00054443     2.77500
O96         O  0.10523745  0.25080024  0.46698815    -0.97500
O97         O  0.10471651  0.24822651  0.03834862    -0.78300
Zr98       Zr  0.00282031  0.25011828  0.43747765     2.70100
O99         O  0.04653385  0.25140325  0.40277024    -0.79600
O100        O  0.46004918  0.24596797  0.39823679    -0.98700
Zr101      Zr  0.99948541  0.18992992  0.00073173     2.21500
Zr102      Zr  0.50031325  0.30927575  0.00167974     2.11100
O103        O  0.03384142  0.28004172  0.47057605    -2.47400
O104        O  0.03392798  0.22017937  0.47043063    -0.79400
O105        O  0.03240401  0.27878311  0.03351517    -0.71600
O106        O  0.46745246  0.22026524  0.46894199    -2.32500
O107        O  0.03219245  0.21919079  0.03344429    -2.28700
O108        O  0.46722853  0.27993963  0.46870878    -0.73300
H109        H  0.45343170  0.29300092  0.04521821     0.78700
H110        H  0.45493409  0.20705265  0.45630875     0.79700
H111        H  0.04677615  0.29345447  0.45856386     0.82000
H112        H  0.04472295  0.20595799  0.04610672     0.79600
H113        H  0.40530237  0.24523456  0.44419885     0.42600
H114        H  0.44576592  0.26302684  0.40281949     0.41600
H115        H  0.03900264  0.26221456  0.38422390     0.41300
H116        H  0.09953989  0.23480157  0.45183034     0.39200
H117        H  0.09521826  0.25651811  0.05728507     0.42300
H118        H  0.02991432  0.24782449  0.12331760     0.37100
H119        H  0.43995372  0.26071078  0.09317633     0.43200
H120        H  0.37818264  0.24464384  0.02807141     0.39600
H121        H  0.10263302  0.27039666  0.45573452     0.44600
H122        H  0.05359825  0.26174066  0.10011704     0.43300
H123        H  0.40239412  0.23388374  0.05238230     0.43400
H124        H  0.47019858  0.25207646  0.37881582     0.43800
O125        O  0.30145240  0.08562010  0.99889697    -0.75100
O126        O  0.33770925  0.04805911  0.00034480    -0.54000
C127        C  0.32947152  0.07648214  0.99966517     0.78600
O128        O  0.19844925  0.49934836  0.08636295    -0.59700
O129        O  0.16296142  0.00042059  0.04886096    -0.52700
C130        C  0.17093774  0.00070576  0.07734608     0.70700
O131        O  0.30167510  0.50291849  0.08653624    -0.74200
O132        O  0.33799719  0.50054065  0.04904041    -0.54800
C133        C  0.32976800  0.00087640  0.07730643     0.76700
O134        O  0.19810514  0.08479788  0.99730134    -0.59400
O135        O  0.16238713  0.04677502  0.99907087    -0.52500
C136        C  0.17019227  0.07523992  0.99790533     0.73300
Zr137      Zr  0.25000979  0.06396098  0.99799964     2.54700
O138        O  0.24834699  0.10625001  0.03463155    -0.80000
O139        O  0.25091053  0.09891927  0.45462449    -0.93400
Zr140      Zr  0.25006325  0.50096524  0.06524948     2.64700
O141        O  0.25170604  0.04417972  0.10214172    -0.98300
O142        O  0.25199378  0.46216590  0.10545294    -0.80400
O143        O  0.28008714  0.03396554  0.03221571    -0.83700
O144        O  0.22050441  0.03374264  0.03231622    -2.18500
O145        O  0.19918912  0.99742955  0.41539908    -0.67100
O146        O  0.16310809  0.99964198  0.45308991    -0.51700
C147        C  0.17084107  0.49743026  0.42416042     0.71600
O148        O  0.30164269  0.41415246  0.00003518    -0.60000
O149        O  0.33782467  0.45179910  0.00083828    -0.52000
C150        C  0.32879453  0.42318307  0.50033436     0.73400
O151        O  0.19868332  0.41354270  0.00474920    -0.71400
O152        O  0.16247839  0.45107109  0.00244795    -0.50100
C153        C  0.17015207  0.42387022  0.50467364     0.74800
O154        O  0.30206915  0.99630379  0.41593475    -0.66800
O155        O  0.33689221  0.49814393  0.45267124    -0.54000
C156        C  0.32883610  0.49629465  0.42421025     0.73200
Zr157      Zr  0.25062039  0.99708638  0.43721487     2.77500
O158        O  0.25085987  0.45185026  0.40297963    -0.97500
O159        O  0.25119001  0.03396037  0.39513213    -0.78300
Zr160      Zr  0.25019190  0.43521913  0.00258777     2.70100
O161        O  0.24979802  0.39258010  0.46905096    -0.79600
O162        O  0.25357507  0.39707050  0.04347741    -0.98700
Zr163      Zr  0.30938188  0.49968036  0.00106820     2.21500
Zr164      Zr  0.19144014  0.99946755  0.00097450     2.11100
O165        O  0.22011379  0.46536615  0.46988992    -2.47400
O166        O  0.27948818  0.46566870  0.47040478    -0.79400
O167        O  0.22054371  0.03138907  0.46697695    -0.71600
O168        O  0.28009189  0.46757854  0.03454877    -2.32500
O169        O  0.28044510  0.03121453  0.46749380    -2.28700
O170        O  0.22016643  0.46733795  0.03455938    -0.73300
H171        H  0.20732162  0.04678420  0.04450495     0.78700
H172        H  0.29324917  0.45519720  0.04749016     0.79700
H173        H  0.20692773  0.45217704  0.45791223     0.82000
H174        H  0.29377667  0.04328574  0.45455165     0.79600
H175        H  0.23812457  0.44572037  0.09813976     0.42600
H176        H  0.23521131  0.40062948  0.05633681     0.41600
H177        H  0.23495051  0.39841453  0.45287538     0.41300
H178        H  0.23168783  0.44061107  0.40751594     0.39200
H179        H  0.25219246  0.05426256  0.40535564     0.42300
H180        H  0.27169217  0.09689241  0.44577707     0.37100
H181        H  0.25921972  0.09837139  0.05298465     0.43200
H182        H  0.23363940  0.05695971  0.09710943     0.39600
H183        H  0.24773771  0.46036178  0.38210643     0.44600
H184        H  0.25062703  0.11974047  0.46382274     0.43300
H185        H  0.24650225  0.03438088  0.12201233     0.43400
H186        H  0.24961040  0.37720202  0.03310218     0.43800
C187        C  0.36940023  0.34584715  0.00081896    -0.21100
C188        C  0.40038591  0.35416301  0.99804530    -0.09100
C189        C  0.40730130  0.38573083  0.50131873     0.29700
C190        C  0.38408287  0.40786742  0.50192389    -0.21100
C191        C  0.35318009  0.39945596  0.49857270    -0.09200
C192        C  0.34642199  0.36804643  0.00132336     0.29700
F193        F  0.31700720  0.35845559  0.00452594    -0.19700
H194        H  0.36274817  0.32197190  0.00301805     0.18100
H195        H  0.39039488  0.43166429  0.50554717     0.18100
F196        F  0.43663518  0.39515459  0.50536539    -0.19700
C197        C  0.38487470  0.09213059  0.00085654    -0.21100
C198        C  0.35377381  0.10050049  0.99976855    -0.09100
C199        C  0.34630308  0.13204875  0.99901188     0.29700
C200        C  0.36931794  0.15427999  0.99884650    -0.21100
C201        C  0.40042247  0.14597349  0.99981551    -0.09200
C202        C  0.40794736  0.11447444  0.00109907     0.29700
F203        F  0.43751001  0.10505135  0.00289378    -0.19700
H204        H  0.39148578  0.06816233  0.00172930     0.18100
H205        H  0.36255193  0.17821371  0.99809179     0.18100
F206        F  0.31676053  0.14175401  0.99864753    -0.19700
C207        C  0.13016523  0.34632092  0.50734268    -0.21100
C208        C  0.09907417  0.35459712  0.50593107    -0.09100
C209        C  0.09196781  0.38475449  0.00461402     0.29700
C210        C  0.11508268  0.40710373  0.00432938    -0.21100
C211        C  0.14574232  0.40001923  0.50538345    -0.09200
C212        C  0.15317432  0.36851013  0.50690888     0.29700
F213        F  0.18270124  0.35877575  0.50762540    -0.19700
H214        H  0.13694971  0.32241134  0.50848208     0.18100
H215        H  0.10849496  0.43104909  0.00284596     0.18100
F216        F  0.06238593  0.39414893  0.00288505    -0.19700
C217        C  0.13084509  0.15400532  0.50425604    -0.21100
C218        C  0.09995945  0.14594667  0.50025072    -0.09100
C219        C  0.09135915  0.11227814  0.00324680     0.29700
C220        C  0.11473820  0.09019219  0.00279325    -0.21100
C221        C  0.14542475  0.09872944  0.99765451    -0.09200
C222        C  0.15211945  0.13001796  0.99276729     0.29700
F223        F  0.18115170  0.13974179  0.98742601    -0.19700
H224        H  0.13746370  0.17774252  0.50773663     0.18100
H225        H  0.10875077  0.06635874  0.00672116     0.18100
F226        F  0.06218456  0.10278267  0.00832313    -0.19700
C227        C  0.38420593  0.49414342  0.40923191    -0.21100
C228        C  0.35324928  0.49561908  0.40046456    -0.09100
C229        C  0.34715653  0.98876974  0.37037598     0.29700
C230        C  0.37005208  0.98848641  0.34798181    -0.21100
C231        C  0.40069686  0.99469323  0.35561668    -0.09200
C232        C  0.40749946  0.49430107  0.38717970     0.29700
F233        F  0.43699455  0.49374281  0.39698793    -0.19700
H234        H  0.39053761  0.49317725  0.43329410     0.18100
H235        H  0.36357624  0.98359750  0.32443431     0.18100
F236        F  0.31797447  0.98288065  0.36136523    -0.19700
C237        C  0.11560992  0.50179751  0.40878367    -0.21100
C238        C  0.14643529  0.49759193  0.40035895    -0.09100
C239        C  0.15357587  0.99352455  0.36967153     0.29700
C240        C  0.13044805  0.99420555  0.34758373    -0.21100
C241        C  0.09986435  0.49969007  0.35506872    -0.09200
C242        C  0.09250549  0.50272539  0.38650191     0.29700
F243        F  0.06313248  0.50673301  0.39588318    -0.19700
H244        H  0.10927771  0.50454857  0.43270740     0.18100
H245        H  0.13667831  0.98998600  0.32384571     0.18100
F246        F  0.18259376  0.98763515  0.36017574    -0.19700
C247        C  0.09233379  0.50069580  0.11546910    -0.21100
C248        C  0.10046028  0.50098669  0.14676604    -0.09100
C249        C  0.13180076  0.50102512  0.15463266     0.29700
C250        C  0.15464985  0.00174203  0.13251781    -0.21100
C251        C  0.14650773  0.00043582  0.10125443    -0.09200
C252        C  0.11515938  0.99869139  0.09359970     0.29700
F253        F  0.10590787  0.99629752  0.06389972    -0.19700
H254        H  0.06850389  0.50065257  0.10859539     0.18100
H255        H  0.17845731  0.00292947  0.13938305     0.18100
F256        F  0.14118727  0.50134376  0.18440494    -0.19700
C257        C  0.38459763  0.00756483  0.09318991    -0.21100
C258        C  0.35413382  0.00065558  0.10107740    -0.09100
C259        C  0.34639494  0.49855766  0.13298177     0.29700
C260        C  0.36930903  0.49825056  0.15535517    -0.21100
C261        C  0.40067653  0.00075048  0.14644351    -0.09200
C262        C  0.40769953  0.00753396  0.11552182     0.29700
F263        F  0.43673153  0.01439312  0.10676449    -0.19700
H264        H  0.39058881  0.01322444  0.06969171     0.18100
H265        H  0.36251356  0.49564354  0.17916934     0.18100
F266        F  0.31694497  0.49492344  0.14230306    -0.19700
C267        C  0.49565957  0.11569658  0.40892924    -0.21100
C268        C  0.00193119  0.14592035  0.40140141    -0.09100
C269        C  0.99177583  0.15248255  0.37139438     0.29700
C270        C  0.99128611  0.12952609  0.34904086    -0.21100
C271        C  0.50168739  0.09984012  0.35544170    -0.09200
C272        C  0.49498302  0.09274970  0.38637990     0.29700
F273        F  0.48682166  0.06390466  0.39489966    -0.19700
H274        H  0.49005995  0.10954234  0.43239721     0.18100
H275        H  0.98321019  0.13533686  0.32621420     0.18100
F276        F  0.98157125  0.18093211  0.36370546    -0.19700
C277        C  0.99674651  0.34622269  0.37122004    -0.21100
C278        C  0.00078344  0.35454287  0.40220622    -0.09100
C279        C  0.50349195  0.38494978  0.40862795     0.29700
C280        C  0.50352423  0.40746708  0.38574843    -0.21100
C281        C  0.00103076  0.39957545  0.35512508    -0.09200
C282        C  0.99678893  0.36826379  0.34799548     0.29700
F283        F  0.99241680  0.35865379  0.31860621    -0.19700
H284        H  0.99334343  0.32243152  0.36473991     0.18100
H285        H  0.50799707  0.43106107  0.39230171     0.18100
F286        F  0.50915868  0.39366974  0.43804746    -0.19700
C287        C  0.00110457  0.38433176  0.09260551    -0.21100
C288        C  0.49816656  0.35374390  0.10162861    -0.09100
C289        C  0.49508030  0.34642618  0.13304259     0.29700
C290        C  0.49622334  0.36947973  0.15521410    -0.21100
C291        C  0.00592479  0.39997260  0.14614055    -0.09200
C292        C  0.00130350  0.40745025  0.11495305     0.29700
F293        F  0.99638213  0.43692054  0.10597592    -0.19700
H294        H  0.99692428  0.39072557  0.06890262     0.18100
H295        H  0.49383464  0.36288548  0.17910957     0.18100
F296        F  0.49078822  0.31703964  0.14261951    -0.19700
C297        C  0.49000592  0.13000076  0.15414572    -0.21100
C298        C  0.49386177  0.09905493  0.14571035    -0.09100
C299        C  0.99956623  0.09172458  0.11572295     0.29700
C300        C  0.99902986  0.11450293  0.09307969    -0.21100
C301        C  0.49379064  0.14612592  0.10071074    -0.09200
C302        C  0.48977656  0.15323818  0.13211279     0.29700
F303        F  0.48571524  0.18261359  0.14186887    -0.19700
H304        H  0.48737566  0.13647818  0.17805058     0.18100
H305        H  0.00010958  0.10758594  0.06917248     0.18100
F306        F  0.00154190  0.06193920  0.10666497    -0.19700
O307        O  0.41496708  0.00067330  0.70021178    -0.75100
O308        O  0.45254690  0.00098591  0.66390755    -0.54000
C309        C  0.42425793  0.00135462  0.67207470     0.78600
O310        O  0.50162703  0.08472601  0.80306939    -0.59700
O311        O  0.50127360  0.04691720  0.83918852    -0.52700
C312        C  0.50182346  0.07533213  0.83112228     0.70700
O313        O  0.49686305  0.08497583  0.69956225    -0.74200
O314        O  0.99826090  0.04661673  0.66330777    -0.54800
C315        C  0.49770460  0.07575159  0.67141043     0.76700
O316        O  0.41640323  0.99723739  0.80407927    -0.59400
O317        O  0.45327242  0.49778134  0.83891765    -0.52500
C318        C  0.42594964  0.99718116  0.83211966     0.73300
Zr319      Zr  0.43672998  0.99754949  0.75184141     2.54700
O320        O  0.39524996  0.03477184  0.75468657    -0.80000
O321        O  0.40259748  0.45397805  0.75122805    -0.93400
Zr322      Zr  0.49862871  0.06376644  0.75137410     2.64700
O323        O  0.45617909  0.10002299  0.75326491    -0.98300
O324        O  0.02975350  0.10841218  0.74975271    -0.80400
O325        O  0.46687020  0.03130241  0.72161201    -0.83400
O326        O  0.46732385  0.03123036  0.78159022    -2.18500
O327        O  0.99851743  0.41392150  0.80272548    -0.67100
O328        O  0.50114051  0.45227483  0.83877717    -0.51700
C329        C  0.99918447  0.42332060  0.83079803     0.71600
O330        O  0.08538560  0.49907591  0.69899376    -0.60000
O331        O  0.04806814  0.99896695  0.66310452    -0.52000
C332        C  0.07623445  0.49839560  0.67085489     0.73400
O333        O  0.08543543  0.50018120  0.80271623    -0.71400
O334        O  0.04763037  0.50049983  0.83879363    -0.50100
C335        C  0.07599327  0.50056500  0.83078794     0.74800
O336        O  0.99841426  0.41389047  0.69923750    -0.66800
O337        O  0.99869526  0.45147664  0.66284457    -0.54000
C338        C  0.99814322  0.42314328  0.67113662     0.73200
Zr339      Zr  0.99996484  0.43512645  0.75089243     2.77500
O340        O  0.04073767  0.39686423  0.75057599    -0.97500
O341        O  0.46253068  0.39589288  0.74876752    -0.78300
Zr342      Zr  0.06421939  0.49921961  0.75082758     2.70100
O343        O  0.10306061  0.45918303  0.75208783    -0.79600
O344        O  0.09751138  0.04772262  0.74959814    -0.98700
Zr345      Zr  0.00037591  0.99907237  0.69183886     2.21500
Zr346      Zr  0.50068482  0.49976922  0.81008034     2.11100
O347        O  0.03265090  0.46662521  0.78079801    -2.47400
O348        O  0.03292726  0.46626925  0.72076086    -0.79400
O349        O  0.46895418  0.46636250  0.78070711    -0.71600
O350        O  0.03119145  0.03374163  0.72103555    -2.32500
O351        O  0.46902492  0.46639189  0.72068101    -2.28700
O352        O  0.03107692  0.03362540  0.78098372    -0.73300
H353        H  0.45462185  0.04342393  0.79507391     0.78700
H354        H  0.04322125  0.04692101  0.70772875     0.79700
H355        H  0.04518676  0.45404089  0.79407407     0.82000
H356        H  0.45687422  0.45369615  0.70719547     0.79600
H357        H  0.04938515  0.10071233  0.74137785     0.42600
H358        H  0.10311802  0.05160686  0.77131683     0.41600
H359        H  0.09185410  0.44011812  0.74685934     0.41300
H360        H  0.05318832  0.40148829  0.76903270     0.39200
H361        H  0.47139066  0.37812715  0.75985175     0.42300
H362        H  0.40524802  0.44416075  0.73086124     0.37100
H363        H  0.40384474  0.05366970  0.74541803     0.43200
H364        H  0.44399417  0.09384505  0.77143555     0.39600
H365        H  0.03041046  0.37722888  0.75552401     0.44600
H366        H  0.38178335  0.46295731  0.75056491     0.43300
H367        H  0.46571851  0.11975461  0.75933146     0.43400
H368        H  0.11666136  0.04029626  0.73994929     0.43800
O369        O  0.49751447  0.19935315  0.58788800    -0.75100
O370        O  0.99871212  0.16113728  0.54881575    -0.54000
C371        C  0.49800287  0.17132175  0.57851534     0.78600
O372        O  0.41464194  0.30186080  0.49846858    -0.59700
O373        O  0.45230909  0.33801984  0.49956035    -0.52700
C374        C  0.42397624  0.32995876  0.49837818     0.70700
O375        O  0.41506629  0.19805165  0.50181066    -0.74200
O376        O  0.45293346  0.16207690  0.50307605    -0.54800
C377        C  0.42458324  0.17001407  0.50270525     0.76700
O378        O  0.50251473  0.30234073  0.58686923    -0.59400
O379        O  0.50100522  0.33822840  0.54879958    -0.52500
C380        C  0.50246927  0.33027493  0.57725774     0.73300
Zr381      Zr  0.50016801  0.25060195  0.56597005     2.54700
O382        O  0.46014070  0.25279875  0.60490280    -0.80000
O383        O  0.03670160  0.24819798  0.60516547    -0.93400
Zr384      Zr  0.43594927  0.25009812  0.50179670     2.64700
O385        O  0.39999503  0.24970289  0.54461484    -0.98300
O386        O  0.39859804  0.25059520  0.95757449    -0.80400
O387        O  0.46775467  0.22043264  0.53435259    -0.83700
O388        O  0.46736210  0.28039708  0.53436668    -2.18500
O389        O  0.08496099  0.30063845  0.00389779    -0.67100
O390        O  0.04693765  0.33788518  0.50392432    -0.51700
C391        C  0.07563645  0.32874702  0.00453483     0.71600
O392        O  0.00167603  0.19770047  0.91454182    -0.60000
O393        O  0.99971444  0.16167938  0.95260920    -0.52000
C394        C  0.00103562  0.16971798  0.92416041     0.73400
O395        O  0.99821832  0.30116990  0.91543934    -0.71400
O396        O  0.50159429  0.33871566  0.95440100    -0.50100
C397        C  0.99832424  0.32917512  0.92512732     0.74800
O398        O  0.08537339  0.19839297  0.50234729    -0.66800
O399        O  0.04788132  0.16208746  0.50069842    -0.54000
C400        C  0.07448568  0.16813528  0.99973484     0.73200
Zr401      Zr  0.06393914  0.25003969  0.50458170     2.77500
O402        O  0.10035486  0.24922548  0.95845202    -0.97500
O403        O  0.09961088  0.24870167  0.54757930    -0.78300
Zr404      Zr  0.99947480  0.24924106  0.93650122     2.70100
O405        O  0.03964419  0.25117108  0.89769810    -0.79600
O406        O  0.46368284  0.24961410  0.89685831    -0.98700
Zr407      Zr  0.00021116  0.19028240  0.50131220     2.21500
Zr408      Zr  0.49993683  0.30925942  0.50120332     2.11100
O409        O  0.03213942  0.27910404  0.96818959    -2.47400
O410        O  0.03203064  0.21901408  0.96791114    -0.79400
O411        O  0.03068463  0.27939585  0.53593809    -0.71600
O412        O  0.46879460  0.22044549  0.96701658    -2.32500
O413        O  0.03145468  0.21933099  0.53558767    -2.28700
O414        O  0.46891013  0.28042164  0.96750489    -0.73300
H415        H  0.45490749  0.29383743  0.54686603     0.78700
H416        H  0.45661503  0.20738379  0.95387867     0.79700
H417        H  0.04464251  0.29243951  0.95569722     0.82000
H418        H  0.04358804  0.20603820  0.54853399     0.79600
H419        H  0.41088903  0.25202268  0.93850430     0.42600
H420        H  0.45373820  0.27004149  0.89776829     0.41600
H421        H  0.05304098  0.23343033  0.90243593     0.41300
H422        H  0.09735254  0.26931553  0.94821914     0.39200
H423        H  0.08967444  0.26122710  0.56376115     0.42300
H424        H  0.04753708  0.22842135  0.60230855     0.37100
H425        H  0.47106167  0.25733686  0.62433794     0.43200
H426        H  0.41061360  0.26067399  0.56146658     0.39600
H427        H  0.12051896  0.25100597  0.96870513     0.44600
H428        H  0.02541064  0.24572492  0.62474648     0.43300
H429        H  0.38333243  0.26376119  0.53828074     0.43400
H430        H  0.47535215  0.24980489  0.87734213     0.43800
O431        O  0.30193329  0.08552186  0.50190594    -0.75100
O432        O  0.33792758  0.04764988  0.50245786    -0.54000
C433        C  0.32989413  0.07613530  0.50272114     0.78600
O434        O  0.19802950  0.50027122  0.58591890    -0.59700
O435        O  0.16190488  0.99978428  0.54796210    -0.52700
C436        C  0.16978672  0.99984137  0.57642753     0.70700
O437        O  0.30147139  0.50265699  0.58726006    -0.74200
O438        O  0.33733630  0.50007328  0.54927873    -0.54800
C439        C  0.32971760  0.00286974  0.57797853     0.76700
O440        O  0.19873857  0.08558097  0.49921064    -0.59400
O441        O  0.16260110  0.04792447  0.50052090    -0.52500
C442        C  0.17074532  0.07637888  0.49989852     0.73300
Zr443      Zr  0.25033288  0.06421699  0.49860205     2.54700
O444        O  0.24858026  0.10782280  0.53364560    -0.80000
O445        O  0.24919774  0.09960979  0.95481699    -0.93400
Zr446      Zr  0.24993784  0.50321971  0.56534665     2.64700
O447        O  0.24937788  0.04581507  0.60159747    -0.98300
O448        O  0.24918255  0.46842872  0.60912682    -0.80400
O449        O  0.27979436  0.03382131  0.53286483    -0.83700
O450        O  0.22051372  0.03397928  0.53268261    -2.18500
O451        O  0.19916458  0.00025475  0.91560057    -0.67100
O452        O  0.16297369  0.99846078  0.95323351    -0.51700
C453        C  0.17041633  0.49971969  0.92486442     0.71600
O454        O  0.30086808  0.41387259  0.50163539    -0.60000
O455        O  0.33697720  0.45159838  0.50047663    -0.52000
C456        C  0.32960698  0.42340146  0.99999766     0.73400
O457        O  0.19811341  0.41455389  0.50519355    -0.71400
O458        O  0.16210844  0.45230481  0.50333851    -0.50100
C459        C  0.17063781  0.42268305  0.00418642     0.74800
O460        O  0.30277135  0.99571876  0.91579192    -0.66800
O461        O  0.33780412  0.49858300  0.95293744    -0.54000
C462        C  0.32976453  0.49686671  0.92446578     0.73200
Zr463      Zr  0.25076955  0.99660787  0.93663531     2.77500
O464        O  0.24924198  0.45768153  0.89791922    -0.97500
O465        O  0.25244917  0.03050599  0.89214870    -0.78300
Zr466      Zr  0.24972068  0.43572086  0.50463197     2.70100
O467        O  0.24800897  0.39619213  0.96262313    -0.79600
O468        O  0.25121880  0.40263720  0.54977515    -0.98700
Zr469      Zr  0.30908884  0.49970516  0.50111112     2.21500
Zr470      Zr  0.19132774  0.00000468  0.50100901     2.11100
O471        O  0.22049509  0.46577250  0.96882786    -2.47400
O472        O  0.28001866  0.46622740  0.96926087    -0.79400
O473        O  0.22067004  0.03060190  0.96675288    -0.71600
O474        O  0.27974460  0.46879284  0.53549084    -2.32500
O475        O  0.28019062  0.03111770  0.96675169    -2.28700
O476        O  0.21994246  0.46906265  0.53539134    -0.73300
H477        H  0.20728750  0.04699849  0.54483735     0.78700
H478        H  0.29280393  0.45657998  0.54858128     0.79700
H479        H  0.20754684  0.45291412  0.95657987     0.82000
H480        H  0.29333185  0.04321991  0.95368222     0.79600
H481        H  0.25148200  0.44773981  0.59993360     0.42600
H482        H  0.23015854  0.40321737  0.55817034     0.41600
H483        H  0.26143808  0.40421199  0.94613701     0.41300
H484        H  0.23116262  0.44501065  0.90315303     0.39200
H485        H  0.26764710  0.04647199  0.89764604     0.42300
H486        H  0.26811699  0.09514863  0.94311729     0.37100
H487        H  0.25165104  0.09870845  0.55427037     0.43200
H488        H  0.22959431  0.05625309  0.59784607     0.39600
H489        H  0.24343554  0.46833737  0.87866590     0.44600
H490        H  0.25289345  0.12001267  0.96421233     0.43300
H491        H  0.24707344  0.03633155  0.62215695     0.43400
H492        H  0.25346874  0.38161623  0.54135120     0.43800
C493        C  0.36922376  0.34614577  0.49310436    -0.21100
C494        C  0.40010146  0.35438436  0.49729220    -0.09100
C495        C  0.40782964  0.38555195  0.99524507     0.29700
C496        C  0.38477266  0.40786956  0.99570815    -0.21100
C497        C  0.35384042  0.39950083  0.99897653    -0.09200
C498        C  0.34604744  0.36822316  0.49372880     0.29700
F499        F  0.31670401  0.35873528  0.48965832    -0.19700
H500        H  0.36277459  0.32237054  0.48959773     0.18100
H501        H  0.39124927  0.43179257  0.99353456     0.18100
F502        F  0.43730163  0.39484519  0.99197519    -0.19700
C503        C  0.38515534  0.09190815  0.49821460    -0.21100
C504        C  0.35440136  0.09993444  0.50368143    -0.09100
C505        C  0.34736616  0.13104477  0.50947990     0.29700
C506        C  0.37032934  0.15330554  0.50930330    -0.21100
C507        C  0.40095777  0.14544052  0.50340249    -0.09200
C508        C  0.40822212  0.11430453  0.49806402     0.29700
F509        F  0.43742145  0.10544318  0.49206049    -0.19700
H510        H  0.39139339  0.06826866  0.49357143     0.18100
H511        H  0.36393961  0.17691873  0.51388321     0.18100
F512        F  0.31829750  0.14025465  0.51551724    -0.19700
C513        C  0.13054351  0.34500332  0.00801160    -0.21100
C514        C  0.09946909  0.35324392  0.00603360    -0.09100
C515        C  0.09154639  0.38608404  0.50425255     0.29700
C516        C  0.11464932  0.40842572  0.50409882    -0.21100
C517        C  0.14620602  0.39874465  0.00549267    -0.09200
C518        C  0.15358551  0.36725028  0.00770116     0.29700
F519        F  0.18309967  0.35761906  0.00935892    -0.19700
H520        H  0.13726688  0.32109087  0.00944617     0.18100
H521        H  0.10808700  0.43238656  0.50272636     0.18100
F522        F  0.06196771  0.39546603  0.50248323    -0.19700
C523        C  0.12889684  0.15196930  0.99333705    -0.21100
C524        C  0.09829459  0.14366042  0.99878368    -0.09100
C525        C  0.09254533  0.11472062  0.49570165     0.29700
C526        C  0.11555035  0.09230212  0.49574707    -0.21100
C527        C  0.14644588  0.10039620  0.50000296    -0.09200
C528        C  0.15379001  0.13173151  0.50407802     0.29700
F529        F  0.18313098  0.14116688  0.50814348    -0.19700
H530        H  0.13510769  0.17573998  0.98943933     0.18100
H531        H  0.10910205  0.06853537  0.49219382     0.18100
F532        F  0.06317480  0.10568572  0.49096552    -0.19700
C533        C  0.38489870  0.50226983  0.90868005    -0.21100
C534        C  0.35427691  0.49621117  0.90061790    -0.09100
C535        C  0.34879101  0.98851754  0.87079364     0.29700
C536        C  0.37188818  0.98902670  0.84867954    -0.21100
C537        C  0.40222388  0.99638737  0.85658992    -0.09200
C538        C  0.40807025  0.50245951  0.88639875     0.29700
F539        F  0.43703784  0.50935566  0.89534962    -0.19700
H540        H  0.39097216  0.50735109  0.93228987     0.18100
H541        H  0.36585412  0.98347826  0.82516006     0.18100
F542        F  0.32006067  0.98084598  0.86168901    -0.19700
C543        C  0.11576199  0.50758434  0.90860275    -0.21100
C544        C  0.14615901  0.50013631  0.90091344    -0.09100
C545        C  0.15404822  0.99814712  0.86947804     0.29700
C546        C  0.13098615  0.99887768  0.84730575    -0.21100
C547        C  0.09975342  0.50068948  0.85529085    -0.09200
C548        C  0.09273381  0.50772538  0.88616294     0.29700
F549        F  0.06374725  0.51494809  0.89477725    -0.19700
H550        H  0.10974162  0.51338451  0.93206288     0.18100
H551        H  0.13758757  0.99694216  0.82337798     0.18100
F552        F  0.18341510  0.99483323  0.85979525    -0.19700
C553        C  0.09197123  0.50143111  0.61535090    -0.21100
C554        C  0.10010940  0.49822687  0.64649627    -0.09100
C555        C  0.13135164  0.49504964  0.65405252     0.29700
C556        C  0.15191960  0.98746133  0.62931030    -0.21100
C557        C  0.14527258  0.99902244  0.59993669    -0.09200
C558        C  0.11548841  0.00991163  0.59383241     0.29700
F559        F  0.10817598  0.02192610  0.56595478    -0.19700
H560        H  0.06819799  0.50383608  0.60870199     0.18100
H561        H  0.17449006  0.97856130  0.63453926     0.18100
F562        F  0.14065247  0.49104927  0.68357491    -0.19700
C563        C  0.38504543  0.00068830  0.59369693    -0.21100
C564        C  0.35401283  0.00328306  0.60198493    -0.09100
C565        C  0.34782318  0.50839664  0.63246296     0.29700
C566        C  0.37119737  0.50823471  0.65435031    -0.21100
C567        C  0.40050238  0.00248730  0.64758409    -0.09200
C568        C  0.40804840  0.00019968  0.61611009     0.29700
F569        F  0.43754201  0.99703243  0.60680132    -0.19700
H570        H  0.39163663  0.99868695  0.56976913     0.18100
H571        H  0.36531993  0.51370242  0.67792411     0.18100
F572        F  0.31908761  0.51556961  0.64193794    -0.19700
C573        C  0.50290963  0.11513373  0.90916070    -0.21100
C574        C  0.00145203  0.14511272  0.90069771    -0.09100
C575        C  0.01602937  0.14964553  0.87220118     0.29700
C576        C  0.01548022  0.12663611  0.84985424    -0.21100
C577        C  0.50239208  0.09928693  0.85543158    -0.09200
C578        C  0.50318247  0.09184225  0.88696464     0.29700
F579        F  0.50471545  0.06218891  0.89652763    -0.19700
H580        H  0.50321870  0.10863021  0.93319648     0.18100
H581        H  0.02711612  0.13064773  0.82822318     0.18100
F582        F  0.03124202  0.17613485  0.86603112    -0.19700
C583        C  0.00803298  0.34672329  0.87147144    -0.21100
C584        C  0.99843657  0.35374931  0.90149319    -0.09100
C585        C  0.51050923  0.38568837  0.90862806     0.29700
C586        C  0.51010244  0.40798366  0.88540742    -0.21100
C587        C  0.99928166  0.39950032  0.85520726    -0.09200
C588        C  0.00875786  0.36923580  0.84867992     0.29700
F589        F  0.01954410  0.36139263  0.82046483    -0.19700
H590        H  0.01557867  0.32373716  0.86562263     0.18100
H591        H  0.51727202  0.43116880  0.89094921     0.18100
F592        F  0.52035464  0.39387491  0.93708643    -0.19700
C593        C  0.99348024  0.38305539  0.59365076    -0.21100
C594        C  0.50395351  0.35481751  0.60077919    -0.09100
C595        C  0.51281347  0.34816265  0.63122952     0.29700
C596        C  0.51291045  0.37116610  0.65344371    -0.21100
C597        C  0.99752383  0.39913668  0.64703566    -0.09200
C598        C  0.99298613  0.40629468  0.61576701     0.29700
F599        F  0.98757198  0.43554811  0.60642635    -0.19700
H600        H  0.99001491  0.38927397  0.56978383     0.18100
H601        H  0.51975463  0.36518107  0.67663090     0.18100
F602        F  0.52171432  0.31950921  0.63973205    -0.19700
C603        C  0.49514456  0.13076730  0.65577936    -0.21100
C604        C  0.49695647  0.09970230  0.64715135    -0.09100
C605        C  0.00138127  0.09110346  0.61563233     0.29700
C606        C  0.00112701  0.11403991  0.59313896    -0.21100
C607        C  0.49695034  0.14679743  0.60222719    -0.09200
C608        C  0.49506454  0.15401869  0.63380407     0.29700
F609        F  0.49320981  0.18351741  0.64381196    -0.19700
H610        H  0.49390803  0.13733613  0.67977671     0.18100
H611        H  0.00635675  0.10774152  0.56961889     0.18100
F612        F  0.00817971  0.06191215  0.60698643    -0.19700
O613        O  0.41465254  0.50020155  0.19983051    -0.75100
O614        O  0.45262014  0.49968936  0.16392423    -0.54000
C615        C  0.42418755  0.50017322  0.17181299     0.78600
O616        O  0.50108773  0.58504071  0.30378972    -0.59700
O617        O  0.49867423  0.54708559  0.33993601    -0.52700
C618        C  0.50014198  0.57543672  0.33179219     0.70700
O619        O  0.49802962  0.58561269  0.19970050    -0.74200
O620        O  0.99963341  0.54721487  0.16297154    -0.54800
C621        C  0.49836659  0.57599654  0.17163535     0.76700
O622        O  0.41502228  0.49642423  0.30326636    -0.59400
O623        O  0.45258990  0.99717664  0.33882639    -0.52500
C624        C  0.42418178  0.49631856  0.33142052     0.73300
Zr625      Zr  0.43600499  0.49915356  0.25147988     2.54700
O626        O  0.40057416  0.54221274  0.25337629    -0.80000
O627        O  0.39901168  0.95727590  0.24875938    -0.93400
Zr628      Zr  0.49855639  0.56430782  0.25171220     2.64700
O629        O  0.45482511  0.59901403  0.25153920    -0.98300
O630        O  0.03430575  0.60620981  0.24888072    -0.80400
O631        O  0.46718125  0.53196465  0.22145104    -0.83400
O632        O  0.46658912  0.53219367  0.28179227    -2.18500
O633        O  0.99841668  0.91468789  0.30295892    -0.67100
O634        O  0.50057813  0.95145557  0.33818067    -0.51700
C635        C  0.99840543  0.92376240  0.33112205     0.71600
O636        O  0.08605542  0.99856958  0.20034146    -0.60000
O637        O  0.04821644  0.50108142  0.16264044    -0.52000
C638        C  0.07695670  0.99981921  0.17225541     0.73400
O639        O  0.08522423  0.00019639  0.30340741    -0.71400
O640        O  0.04758096  0.99996109  0.33960959    -0.50100
C641        C  0.07590923  0.00017277  0.33150496     0.74800
O642        O  0.99970990  0.91445551  0.19937595    -0.66800
O643        O  0.00001855  0.95245761  0.16337457    -0.54000
C644        C  0.99958743  0.92399138  0.17131752     0.73200
Zr645      Zr  0.00016601  0.93579649  0.25119293     2.77500
O646        O  0.04217648  0.89901212  0.25174161    -0.97500
O647        O  0.46247325  0.89460189  0.25025598    -0.78300
Zr648      Zr  0.06408116  0.99995904  0.25158246     2.70100
O649        O  0.10473259  0.96172375  0.25062080    -0.79600
O650        O  0.10085677  0.54367992  0.25054017    -0.98700
Zr651      Zr  0.00087359  0.49947821  0.19163441     2.21500
Zr652      Zr  0.49994560  0.99969051  0.30999529     2.11100
O653        O  0.03280353  0.96700643  0.28141079    -2.47400
O654        O  0.03274572  0.96732342  0.22129753    -0.79400
O655        O  0.46785431  0.96660637  0.28060351    -0.71600
O656        O  0.03233923  0.53316483  0.22099604    -2.32500
O657        O  0.46787706  0.96684169  0.22073827    -2.28700
O658        O  0.03207950  0.53297385  0.28062080    -0.73300
H659        H  0.45376761  0.54447202  0.29509363     0.78700
H660        H  0.04458425  0.54618120  0.20788045     0.79700
H661        H  0.04532733  0.95435890  0.29463096     0.82000
H662        H  0.45547892  0.95427148  0.20739833     0.79600
H663        H  0.05390086  0.59683074  0.24234224     0.42600
H664        H  0.09709612  0.55471066  0.27010321     0.41600
H665        H  0.09431531  0.94236501  0.24482862     0.41300
H666        H  0.05122881  0.90070294  0.27255325     0.39200
H667        H  0.44983331  0.89854213  0.23177331     0.42300
H668        H  0.40532140  0.94459052  0.23094753     0.37100
H669        H  0.38145257  0.53341367  0.26183499     0.43200
H670        H  0.44667053  0.59830462  0.27276620     0.39600
H671        H  0.03204365  0.87866532  0.25157615     0.44600
H672        H  0.37971752  0.96717827  0.24208813     0.43300
H673        H  0.46393162  0.61975813  0.24962773     0.43400
H674        H  0.12108459  0.53380363  0.25336547     0.43800
O675        O  0.49672239  0.69742635  0.08573467    -0.75100
O676        O  0.99842684  0.66158596  0.04835771    -0.54000
C677        C  0.49822141  0.66939766  0.07653899     0.78600
O678        O  0.41534502  0.80153120  0.99706749    -0.59700
O679        O  0.45307468  0.83753355  0.99944524    -0.52700
C680        C  0.42476525  0.82957574  0.99798518     0.70700
O681        O  0.41453387  0.69792800  0.99871744    -0.74200
O682        O  0.45217722  0.66174595  0.99949072    -0.54800
C683        C  0.42382691  0.66985817  0.99894086     0.76700
O684        O  0.49731308  0.80080377  0.08654945    -0.59400
O685        O  0.49880963  0.83713095  0.04897912    -0.52500
C686        C  0.49794297  0.82887689  0.07734851     0.73300
Zr687      Zr  0.49745786  0.74923813  0.06512772     2.54700
O688        O  0.45580448  0.75006566  0.10229985    -0.80000
O689        O  0.03501317  0.75022584  0.10581577    -0.93400
Zr690      Zr  0.43605447  0.74954921  0.99824778     2.64700
O691        O  0.39409806  0.75117990  0.03507705    -0.98300
O692        O  0.39953038  0.75083996  0.45718068    -0.80400
O693        O  0.46586965  0.71933633  0.03242002    -0.83700
O694        O  0.46617024  0.77921803  0.03245560    -2.18500
O695        O  0.08600501  0.80120309  0.49948438    -0.67100
O696        O  0.04692366  0.83822649  0.00448374    -0.51700
C697        C  0.07647030  0.82922666  0.49940705     0.71600
O698        O  0.00183473  0.69793176  0.41509441    -0.60000
O699        O  0.00072592  0.66150168  0.45260424    -0.52000
C700        C  0.00176127  0.66983836  0.42421054     0.73400
O701        O  0.99638657  0.80097982  0.41524949    -0.71400
O702        O  0.50064272  0.83735308  0.45330023    -0.50100
C703        C  0.99725802  0.82893501  0.42490785     0.74800
O704        O  0.08559976  0.69795410  0.00143295    -0.66800
O705        O  0.04762353  0.66209825  0.00053477    -0.54000
C706        C  0.07686027  0.66993870  0.49762830     0.73200
Zr707      Zr  0.06423202  0.74977998  0.00403067     2.77500
O708        O  0.10139717  0.74991152  0.45705758    -0.97500
O709        O  0.10002340  0.74797217  0.04695075    -0.78300
Zr710      Zr  0.99872143  0.74939261  0.43659159     2.70100
O711        O  0.03691428  0.75097925  0.39592688    -0.79600
O712        O  0.46294695  0.74802377  0.39615194    -0.98700
Zr713      Zr  0.99991476  0.69071587  0.00072058     2.21500
Zr714      Zr  0.50034149  0.80855101  0.00132981     2.11100
O715        O  0.03228177  0.77918471  0.46723586    -2.47400
O716        O  0.03233770  0.71956080  0.46717261    -0.79400
O717        O  0.03099692  0.77946351  0.03524832    -0.71600
O718        O  0.46830533  0.71963184  0.46716288    -2.32500
O719        O  0.03114346  0.71979035  0.03509869    -2.28700
O720        O  0.46874818  0.77951908  0.46746470    -0.73300
H721        H  0.45309465  0.79238987  0.04466168     0.78700
H722        H  0.45600614  0.70650173  0.45422455     0.79700
H723        H  0.04439952  0.79246631  0.45426292     0.82000
H724        H  0.04320512  0.70647078  0.04813895     0.79600
H725        H  0.40830041  0.76552366  0.44219555     0.42600
H726        H  0.44983921  0.76615264  0.40016221     0.41600
H727        H  0.05415757  0.73858596  0.40396791     0.41300
H728        H  0.09752190  0.76941058  0.44599703     0.39200
H729        H  0.09383610  0.76523246  0.06042724     0.42300
H730        H  0.04822387  0.73220819  0.10166117     0.37100
H731        H  0.43716430  0.75341228  0.08979167     0.43200
H732        H  0.37560586  0.74672599  0.02266645     0.39600
H733        H  0.12147463  0.75296243  0.46717475     0.44600
H734        H  0.02354146  0.74469140  0.12464935     0.43300
H735        H  0.39690065  0.73267939  0.04802050     0.43400
H736        H  0.47415272  0.75323995  0.37705949     0.43800
O737        O  0.30108799  0.58538995  0.00021524    -0.75100
O738        O  0.33739987  0.54785503  0.00049341    -0.54000
C739        C  0.32907905  0.57624818  0.00029359     0.78600
O740        O  0.19891234  0.00126216  0.08674830    -0.59700
O741        O  0.16258769  0.49998592  0.04840460    -0.52700
C742        C  0.17053765  0.49973263  0.07684352     0.70700
O743        O  0.30182363  0.00169757  0.08665458    -0.74200
O744        O  0.33790012  0.00021535  0.04887417    -0.54800
C745        C  0.32971579  0.50189435  0.07745252     0.76700
O746        O  0.19797016  0.58423221  0.99836704    -0.59400
O747        O  0.16183118  0.54661492  0.00042683    -0.52500
C748        C  0.16996844  0.57504108  0.99917274     0.73300
Zr749      Zr  0.24984165  0.56361173  0.99954991     2.54700
O750        O  0.24971629  0.60413561  0.03824277    -0.80000
O751        O  0.25001959  0.59806132  0.45353215    -0.93400
Zr752      Zr  0.25040674  0.00226313  0.06508260     2.64700
O753        O  0.24721125  0.54240641  0.10284116    -0.98300
O754        O  0.24961286  0.96354065  0.10539902    -0.80400
O755        O  0.27994043  0.53300031  0.03302671    -0.83700
O756        O  0.22010962  0.53261983  0.03279117    -2.18500
O757        O  0.19877839  0.49699419  0.41481891    -0.67100
O758        O  0.16275877  0.49801495  0.45263008    -0.51700
C759        C  0.17121563  0.99849395  0.42467695     0.71600
O760        O  0.30190724  0.91406042  0.00096839    -0.60000
O761        O  0.33797584  0.95185677  0.00125328    -0.52000
C762        C  0.32935284  0.92318768  0.50222517     0.73400
O763        O  0.19854349  0.91428154  0.00651697    -0.71400
O764        O  0.16251970  0.95192982  0.00338829    -0.50100
C765        C  0.17086424  0.92344938  0.50200902     0.74800
O766        O  0.30094860  0.49518521  0.41481726    -0.66800
O767        O  0.33800965  0.99720880  0.45385829    -0.54000
C768        C  0.32998932  0.99620632  0.42533720     0.73200
Zr769      Zr  0.24994507  0.49644694  0.43681314     2.77500
O770        O  0.25119118  0.95377904  0.40168768    -0.97500
O771        O  0.24953179  0.53448468  0.39573380    -0.78300
Zr772      Zr  0.25032889  0.93537090  0.00344937     2.70100
O773        O  0.24894273  0.89153311  0.47047779    -0.79600
O774        O  0.25341147  0.89967524  0.04640148    -0.98700
Zr775      Zr  0.30950236  0.99990249  0.00099977     2.21500
Zr776      Zr  0.19097780  0.49902844  0.00080122     2.11100
O777        O  0.22079861  0.96578994  0.47008230    -2.47400
O778        O  0.28003627  0.96571902  0.47057258    -0.79400
O779        O  0.22040624  0.53083236  0.46674410    -0.71600
O780        O  0.28016683  0.96836312  0.03471170    -2.32500
O781        O  0.28000582  0.53066237  0.46666014    -2.28700
O782        O  0.22060592  0.96822508  0.03491595    -0.73300
H783        H  0.20694181  0.54534149  0.04497693     0.78700
H784        H  0.29329800  0.95606106  0.04765645     0.79700
H785        H  0.20777925  0.95269435  0.45782490     0.82000
H786        H  0.29316922  0.54262179  0.45345588     0.79600
H787        H  0.25937222  0.94528410  0.09599193     0.42600
H788        H  0.23257101  0.89937066  0.05533730     0.41600
H789        H  0.25413833  0.90004812  0.45003148     0.41300
H790        H  0.23237067  0.94202112  0.40640445     0.39200
H791        H  0.25097250  0.52230588  0.37655168     0.42300
H792        H  0.26978161  0.59437583  0.44302549     0.37100
H793        H  0.26711349  0.59916116  0.05197285     0.43200
H794        H  0.23236958  0.55725024  0.09413549     0.39600
H795        H  0.24722004  0.96304275  0.38127741     0.44600
H796        H  0.25200742  0.61892453  0.46239419     0.43300
H797        H  0.23649471  0.53335139  0.12073801     0.43400
H798        H  0.25579735  0.87925054  0.03665116     0.43800
C799        C  0.37001220  0.84575290  0.00060235    -0.21100
C800        C  0.40099263  0.85405078  0.99799616    -0.09100
C801        C  0.40792442  0.88544974  0.50133366     0.29700
C802        C  0.38476548  0.90769596  0.50179093    -0.21100
C803        C  0.35368586  0.89922923  0.50130705    -0.09200
C804        C  0.34706044  0.86796549  0.00199309     0.29700
F805        F  0.31778825  0.85826970  0.00591576    -0.19700
H806        H  0.36333335  0.82184006  0.00223271     0.18100
H807        H  0.39130757  0.93167763  0.50277022     0.18100
F808        F  0.43746987  0.89498548  0.50252014    -0.19700
C809        C  0.38379501  0.59219821  0.99344504    -0.21100
C810        C  0.35326258  0.60022923  0.99980092    -0.09100
C811        C  0.34616625  0.63143354  0.00498004     0.29700
C812        C  0.36923394  0.65360571  0.00474460    -0.21100
C813        C  0.39986206  0.64557368  0.99877500    -0.09200
C814        C  0.40680260  0.61455627  0.99255495     0.29700
F815        F  0.43560570  0.60577105  0.98486869    -0.19700
H816        H  0.38990068  0.56855955  0.98862219     0.18100
H817        H  0.36294776  0.67724404  0.00934865     0.18100
F818        F  0.31699146  0.64078723  0.01038840    -0.19700
C819        C  0.13115217  0.84589658  0.49558496    -0.21100
C820        C  0.10013971  0.85385464  0.49901640    -0.09100
C821        C  0.09162547  0.88615332  0.00756357     0.29700
C822        C  0.11487207  0.90838261  0.00750397    -0.21100
C823        C  0.14657450  0.89949161  0.50066064    -0.09200
C824        C  0.15405282  0.86824182  0.49623861     0.29700
F825        F  0.18347083  0.85901216  0.49215602    -0.19700
H826        H  0.13790622  0.82216488  0.49234140     0.18100
H827        H  0.10841543  0.93241135  0.00767570     0.18100
F828        F  0.06203585  0.89570579  0.00796320    -0.19700
C829        C  0.13169540  0.65404884  0.49407363    -0.21100
C830        C  0.10071685  0.64562530  0.49666567    -0.09100
C831        C  0.09214543  0.61413408  0.00511357     0.29700
C832        C  0.11495465  0.59146774  0.00468546    -0.21100
C833        C  0.14571721  0.59913863  0.99892651    -0.09200
C834        C  0.15308423  0.63025728  0.99347971     0.29700
F835        F  0.18234064  0.63925665  0.98799650    -0.19700
H836        H  0.13832166  0.67797127  0.49236831     0.18100
H837        H  0.10849208  0.56788441  0.00927275     0.18100
F838        F  0.06294826  0.60557388  0.01145987    -0.19700
C839        C  0.38508594  0.00074277  0.40919557    -0.21100
C840        C  0.35434856  0.99508090  0.40140616    -0.09100
C841        C  0.34607923  0.49691452  0.36884772     0.29700
C842        C  0.36927044  0.49655153  0.34689453    -0.21100
C843        C  0.40023407  0.49543290  0.35559454    -0.09200
C844        C  0.40802447  0.00057916  0.38667623     0.29700
F845        F  0.43719378  0.00692659  0.39535038    -0.19700
H846        H  0.39141484  0.00581487  0.43274149     0.18100
H847        H  0.36276201  0.49770141  0.32288266     0.18100
F848        F  0.31673139  0.49921226  0.35881390    -0.19700
C849        C  0.11609101  0.00431373  0.40926510    -0.21100
C850        C  0.14671800  0.99860995  0.40093435    -0.09100
C851        C  0.15360138  0.49411152  0.36892470     0.29700
C852        C  0.13063989  0.49534433  0.34675936    -0.21100
C853        C  0.09984392  0.99993623  0.35581034    -0.09200
C854        C  0.09290464  0.00515766  0.38703693     0.29700
F855        F  0.06390991  0.01162332  0.39618362    -0.19700
H856        H  0.11001639  0.00854181  0.43304279     0.18100
H857        H  0.13715752  0.49256931  0.32288537     0.18100
F858        F  0.18276356  0.48930041  0.35927127    -0.19700
C859        C  0.09279699  0.99886601  0.11668377    -0.21100
C860        C  0.10099444  0.00008688  0.14793988    -0.09100
C861        C  0.13241101  0.00140630  0.15555845     0.29700
C862        C  0.15414455  0.50066237  0.13179847    -0.21100
C863        C  0.14609434  0.50014747  0.10052038    -0.09200
C864        C  0.11479446  0.50021451  0.09255735     0.29700
F865        F  0.10569623  0.49961556  0.06271062    -0.19700
H866        H  0.06895454  0.99762690  0.10997448     0.18100
H867        H  0.17793266  0.50073079  0.13883159     0.18100
F868        F  0.14199170  0.00241968  0.18525789    -0.19700
C869        C  0.38498861  0.50448199  0.09346861    -0.21100
C870        C  0.35392303  0.50185766  0.10158930    -0.09100
C871        C  0.34726045  0.99364503  0.13194263     0.29700
C872        C  0.37023572  0.99374011  0.15417789    -0.21100
C873        C  0.40040167  0.50075306  0.14727691    -0.09200
C874        C  0.40799078  0.50380215  0.11591118     0.29700
F875        F  0.43757821  0.50613909  0.10671888    -0.19700
H876        H  0.39162321  0.50697113  0.06960604     0.18100
H877        H  0.36405699  0.98802324  0.17761015     0.18100
F878        F  0.31838211  0.98630279  0.14082869    -0.19700
C879        C  0.48571575  0.61778310  0.40651449    -0.21100
C880        C  0.00262106  0.64564752  0.40012666    -0.09100
C881        C  0.00885835  0.65302179  0.36914340     0.29700
C882        C  0.00867571  0.63016573  0.34664469    -0.21100
C883        C  0.50091961  0.59896088  0.35615437    -0.09200
C884        C  0.48467523  0.59505565  0.38380003     0.29700
F885        F  0.46671781  0.56998822  0.38826900    -0.19700
H886        H  0.47267855  0.61456451  0.42746277     0.18100
H887        H  0.01346029  0.63672561  0.32309838     0.18100
F888        F  0.01525289  0.68227057  0.36033868    -0.19700
C889        C  0.99447676  0.84578089  0.37010338    -0.21100
C890        C  0.99646260  0.85363204  0.40138363    -0.09100
C891        C  0.49490978  0.88483190  0.40834310     0.29700
C892        C  0.49525295  0.90721807  0.38525031    -0.21100
C893        C  0.99745830  0.89965273  0.35530447    -0.09200
C894        C  0.99499382  0.86830838  0.34736241     0.29700
F895        F  0.99315862  0.85908673  0.31758372    -0.19700
H896        H  0.99275523  0.82198800  0.36298377     0.18100
H897        H  0.49109367  0.93092377  0.39159218     0.18100
F898        F  0.48882420  0.89372108  0.43763701    -0.19700
C899        C  0.99530778  0.88487260  0.09291445    -0.21100
C900        C  0.49796962  0.85322033  0.10121208    -0.09100
C901        C  0.50050379  0.84571297  0.13264162     0.29700
C902        C  0.50137629  0.86877764  0.15478894    -0.21100
C903        C  0.99878295  0.90024678  0.14674988    -0.09200
C904        C  0.99571200  0.90794357  0.11537884     0.29700
F905        F  0.99264773  0.93762405  0.10627824    -0.19700
H906        H  0.99305519  0.89151744  0.06901610     0.18100
H907        H  0.50345310  0.86200387  0.17866507     0.18100
F908        F  0.50257943  0.81610894  0.14227662    -0.19700
C909        C  0.50362871  0.63047264  0.15435561    -0.21100
C910        C  0.49822020  0.59953467  0.14687906    -0.09100
C911        C  0.98981895  0.59212082  0.11594809     0.29700
C912        C  0.98997446  0.61498063  0.09330062    -0.21100
C913        C  0.49871039  0.64531431  0.10061374    -0.09200
C914        C  0.50407521  0.65305810  0.13164942     0.29700
F915        F  0.51026110  0.68241200  0.14025185    -0.19700
H916        H  0.50790406  0.63733088  0.17791644     0.18100
H917        H  0.98386930  0.60880515  0.06995788     0.18100
F918        F  0.98117396  0.56323102  0.10799339    -0.19700
O919        O  0.41604057  0.50003696  0.69868609    -0.75100
O920        O  0.45392917  0.50017420  0.66269356    -0.54000
C921        C  0.42551241  0.50041930  0.67061837     0.78600
O922        O  0.50039675  0.58539170  0.80298877    -0.59700
O923        O  0.50027493  0.54733282  0.83886784    -0.52700
C924        C  0.50051015  0.57578225  0.83098425     0.70700
O925        O  0.49816166  0.58531040  0.69937432    -0.74200
O926        O  0.00050603  0.54612190  0.66203329    -0.54800
C927        C  0.49953885  0.57581249  0.67133456     0.76700
O928        O  0.41560231  0.49729408  0.80270619    -0.59400
O929        O  0.45432466  0.99767212  0.84001005    -0.52500
C930        C  0.42495128  0.49714093  0.83083358     0.73300
Zr931      Zr  0.43680087  0.49819002  0.75074706     2.54700
O932        O  0.39409408  0.53414168  0.75063256    -0.80000
O933        O  0.40111150  0.95450788  0.75150668    -0.93400
Zr934      Zr  0.49989341  0.56408349  0.75123252     2.64700
O935        O  0.45984954  0.60305351  0.75193599    -0.98300
O936        O  0.04275825  0.60068866  0.74928755    -0.80400
O937        O  0.46787870  0.53188264  0.72127194    -0.83400
O938        O  0.46741761  0.53186855  0.78071964    -2.18500
O939        O  0.00178138  0.91339593  0.80217690    -0.67100
O940        O  0.50261108  0.95176185  0.83885185    -0.51700
C941        C  0.00159182  0.92283266  0.83023627     0.71600
O942        O  0.08590586  0.99949383  0.69922933    -0.60000
O943        O  0.04794136  0.49799741  0.66259714    -0.52000
C944        C  0.07643683  0.99877928  0.67115653     0.73400
O945        O  0.08538622  0.00206586  0.80309846    -0.71400
O946        O  0.04774660  0.00112610  0.83931084    -0.50100
C947        C  0.07608565  0.00172464  0.83124040     0.74800
O948        O  0.00393227  0.91388646  0.69852033    -0.66800
O949        O  0.00134130  0.95185265  0.66260358    -0.54000
C950        C  0.00297542  0.92345488  0.67048537     0.73200
Zr951      Zr  0.00400693  0.93490570  0.75057238     2.77500
O952        O  0.04911381  0.90202557  0.74967410    -0.97500
O953        O  0.46613530  0.89375924  0.75009598    -0.78300
Zr954      Zr  0.06433820  0.00276392  0.75101246     2.70100
O955        O  0.10752586  0.96756057  0.75225736    -0.79600
O956        O  0.10250189  0.53984242  0.75048474    -0.98700
Zr957      Zr  0.00044002  0.49909252  0.69145273     2.21500
Zr958      Zr  0.50122869  0.99935770  0.81026926     2.11100
O959        O  0.03461530  0.96820384  0.78074703    -2.47400
O960        O  0.03479720  0.96833388  0.72091827    -0.79400
O961        O  0.46951938  0.96559298  0.78118389    -0.71600
O962        O  0.03311415  0.53198335  0.72057031    -2.32500
O963        O  0.46904566  0.96615224  0.72136138    -2.28700
O964        O  0.03265403  0.53190101  0.78056352    -0.73300
H965        H  0.45455993  0.54419516  0.79394700     0.78700
H966        H  0.04573394  0.54449861  0.70732626     0.79700
H967        H  0.04771549  0.95609622  0.79391586     0.82000
H968        H  0.45669666  0.95333452  0.70819632     0.79600
H969        H  0.03269478  0.62102003  0.74784706     0.42600
H970        H  0.09708226  0.55309163  0.76818885     0.41600
H971        H  0.09804161  0.94690124  0.75189062     0.41300
H972        H  0.05390761  0.89798054  0.77155230     0.39200
H973        H  0.44653433  0.90357250  0.75592686     0.42300
H974        H  0.40318822  0.94527012  0.73080126     0.37100
H975        H  0.40276501  0.55343896  0.75897832     0.43200
H976        H  0.44695808  0.59785988  0.76992439     0.39600
H977        H  0.04160552  0.88210154  0.74166479     0.44600
H978        H  0.38061268  0.96421723  0.75138556     0.43300
H979        H  0.47049428  0.62223221  0.75793907     0.43400
H980        H  0.12171437  0.52952330  0.75676554     0.43800
O981        O  0.49632973  0.69809596  0.58671499    -0.75100
O982        O  0.00135360  0.66131705  0.54814207    -0.54000
C983        C  0.49725117  0.67008372  0.57727690     0.78600
O984        O  0.41520515  0.80149503  0.49919560    -0.59700
O985        O  0.45287987  0.83761477  0.50022757    -0.52700
C986        C  0.42451269  0.82957276  0.49970271     0.70700
O987        O  0.41504717  0.69778475  0.49860003    -0.74200
O988        O  0.45271140  0.66167631  0.50060871    -0.54800
C989        C  0.42442243  0.66970591  0.49943503     0.76700
O990        O  0.50068340  0.80123303  0.58670520    -0.59400
O991        O  0.49989734  0.83738200  0.54890776    -0.52500
C992        C  0.50044229  0.82926856  0.57736379     0.73300
Zr993      Zr  0.49921063  0.74962401  0.56530367     2.54700
O994        O  0.45964235  0.75275877  0.60461724    -0.80000
O995        O  0.04326388  0.74719743  0.60307585    -0.93400
Zr996      Zr  0.43632711  0.74964578  0.49922462     2.64700
O997        O  0.39554030  0.74865404  0.53729390    -0.98300
O998        O  0.39949649  0.74854892  0.95603113    -0.80400
O999        O  0.46693980  0.71986340  0.53299188    -0.83700
O1000       O  0.46716513  0.77930335  0.53294214    -2.18500
O1001       O  0.08453428  0.80207726  0.00586492    -0.67100
O1002       O  0.04806607  0.83707067  0.49973156    -0.51700
C1003       C  0.07519739  0.83018214  0.00582824     0.71600
O1004       O  0.00451156  0.69861314  0.91528250    -0.60000
O1005       O  0.00219766  0.66226698  0.95280835    -0.52000
C1006       C  0.00392236  0.67051233  0.92443478     0.73400
O1007       O  0.00306639  0.80186091  0.91570082    -0.71400
O1008       O  0.50097135  0.83748777  0.95376391    -0.50100
C1009       C  0.00255452  0.82985160  0.92523163     0.74800
O1010       O  0.08615715  0.69798788  0.49676616    -0.66800
O1011       O  0.04858567  0.66183902  0.49944599    -0.54000
C1012       C  0.07603322  0.66993730  0.00058499     0.73200
Zr1013     Zr  0.06464151  0.74941683  0.49914402     2.77500
O1014       O  0.10685434  0.75067967  0.96788827    -0.97500
O1015       O  0.10420752  0.74749523  0.53854813    -0.78300
Zr1016     Zr  0.00290802  0.75015559  0.93684591     2.70100
O1017       O  0.04434818  0.75032273  0.89948281    -0.79600
O1018       O  0.46603661  0.74961980  0.89471495    -0.98700
Zr1019     Zr  0.00072956  0.69014500  0.50053434     2.21500
Zr1020     Zr  0.50050970  0.80873346  0.50104998     2.11100
O1021       O  0.03434511  0.77984612  0.96985439    -2.47400
O1022       O  0.03404946  0.72014082  0.96975477    -0.79400
O1023       O  0.03392315  0.77897693  0.53289242    -0.71600
O1024       O  0.46885382  0.71985918  0.96667008    -2.32500
O1025       O  0.03399267  0.71942430  0.53265509    -2.28700
O1026       O  0.46902466  0.77955400  0.96711955    -0.73300
H1027       H  0.45440010  0.79247935  0.54540268     0.78700
H1028       H  0.45683501  0.70674769  0.95350596     0.79700
H1029       H  0.04737401  0.79310855  0.95792019     0.82000
H1030       H  0.04686579  0.70616822  0.54491088     0.79600
H1031       H  0.41150573  0.74162519  0.93802211     0.42600
H1032       H  0.45009654  0.76449952  0.90107937     0.41600
H1033       H  0.06144003  0.76091202  0.91002370     0.41300
H1034       H  0.10311676  0.76886400  0.95474477     0.39200
H1035       H  0.09547288  0.75905310  0.55609465     0.42300
H1036       H  0.05147234  0.72602168  0.60190051     0.37100
H1037       H  0.44321496  0.73895146  0.59718379     0.43200
H1038       H  0.40055277  0.76555913  0.55168427     0.39600
H1039       H  0.12484540  0.75636639  0.98053740     0.44600
H1040       H  0.03270360  0.74812579  0.62320417     0.43300
H1041       H  0.37720977  0.75594864  0.52605638     0.43400
H1042       H  0.47665247  0.75979230  0.87736296     0.43800
O1043       O  0.30202348  0.58509833  0.49814637    -0.75100
O1044       O  0.33802627  0.54733129  0.50024556    -0.54000
C1045       C  0.32996492  0.57577438  0.49920637     0.78600
O1046       O  0.19769013  0.00042456  0.58616735    -0.59700
O1047       O  0.16213861  0.50100524  0.54793796    -0.52700
C1048       C  0.17008553  0.50024418  0.57637640     0.70700
O1049       O  0.30169286  0.00421815  0.58706587    -0.74200
O1050       O  0.33794912  0.00085384  0.54962543    -0.54800
C1051       C  0.32942106  0.50145613  0.57779361     0.76700
O1052       O  0.19956593  0.58588580  0.49693089    -0.59400
O1053       O  0.16343880  0.54819404  0.49781336    -0.52500
C1054       C  0.17165037  0.57660468  0.49687388     0.73300
Zr1055     Zr  0.25046211  0.56386656  0.49780988     2.54700
O1056       O  0.24925494  0.60630498  0.53434063    -0.80000
O1057       O  0.24904755  0.60123227  0.95816112    -0.93400
Zr1058     Zr  0.24995303  0.00263946  0.56596742     2.64700
O1059       O  0.24898166  0.54864548  0.59804893    -0.98300
O1060       O  0.25252144  0.96601625  0.60828887    -0.80400
O1061       O  0.28018326  0.53410686  0.53229646    -0.83700
O1062       O  0.22025540  0.53408366  0.53193040    -2.18500
O1063       O  0.19845004  0.50019734  0.91569389    -0.67100
O1064       O  0.16214543  0.49877259  0.95323564    -0.51700
C1065       C  0.17116178  0.99967528  0.92484053     0.71600
O1066       O  0.30135473  0.91402039  0.50214428    -0.60000
O1067       O  0.33755756  0.95160857  0.50298720    -0.52000
C1068       C  0.32989894  0.92337888  0.00082209     0.73400
O1069       O  0.19874714  0.91415823  0.50393551    -0.71400
O1070       O  0.16283159  0.95192258  0.50084229    -0.50100
C1071       C  0.17053524  0.92355923  0.00567215     0.74800
O1072       O  0.30179197  0.49597710  0.91514791    -0.66800
O1073       O  0.33864984  0.99810329  0.95371468    -0.54000
C1074       C  0.33072531  0.99642027  0.92527686     0.73200
Zr1075     Zr  0.25025253  0.49807400  0.93666744     2.77500
O1076       O  0.24934059  0.95087631  0.90436389    -0.97500
O1077       O  0.25073737  0.53776374  0.89723928    -0.78300
Zr1078     Zr  0.25008927  0.93571355  0.50475417     2.70100
O1079       O  0.24745416  0.89468999  0.96513648    -0.79600
O1080       O  0.25060209  0.90182915  0.54927802    -0.98700
Zr1081     Zr  0.30935431  0.99970868  0.50185012     2.21500
Zr1082     Zr  0.19103251  0.49987077  0.50066510     2.11100
O1083       O  0.22053200  0.96546695  0.96940782    -2.47400
O1084       O  0.28053114  0.96563612  0.96976315    -0.79400
O1085       O  0.22018394  0.53116646  0.96755990    -0.71600
O1086       O  0.28000656  0.96846949  0.53609341    -2.32500
O1087       O  0.28004894  0.53158725  0.96751576    -2.28700
O1088       O  0.21996319  0.96870862  0.53570475    -0.73300
H1089       H  0.20704420  0.54727570  0.54392338     0.78700
H1090       H  0.29304640  0.95627386  0.54923535     0.79700
H1091       H  0.20728586  0.95239307  0.95732173     0.82000
H1092       H  0.29328552  0.54405005  0.95450509     0.79600
H1093       H  0.24524037  0.97757834  0.62649323     0.42600
H1094       H  0.23136821  0.90656999  0.56035457     0.41600
H1095       H  0.25773025  0.90336647  0.94680429     0.41300
H1096       H  0.22732470  0.94614271  0.90176607     0.39200
H1097       H  0.25958384  0.52761754  0.87889270     0.42300
H1098       H  0.26298063  0.59277778  0.94232704     0.37100
H1099       H  0.25444580  0.62469884  0.52200151     0.43200
H1100       H  0.22700215  0.55349199  0.60075955     0.39600
H1101       H  0.25605623  0.95809269  0.88386076     0.44600
H1102       H  0.26003291  0.61929303  0.96654665     0.43300
H1103       H  0.25570120  0.54114813  0.61845611     0.43400
H1104       H  0.24725761  0.88105834  0.54058314     0.43800
C1105       C  0.36941813  0.84552551  0.49928945    -0.21100
C1106       C  0.40052742  0.85393708  0.49998497    -0.09100
C1107       C  0.40848631  0.88554797  0.99650024     0.29700
C1108       C  0.38537034  0.90789148  0.99726813    -0.21100
C1109       C  0.35435344  0.89948923  0.00001566    -0.09200
C1110       C  0.34630552  0.86767705  0.50001052     0.29700
F1111       F  0.31677732  0.85791113  0.49952802    -0.19700
H1112       H  0.36273342  0.82157586  0.49832960     0.18100
H1113       H  0.39187212  0.93186363  0.99586802     0.18100
F1114       F  0.43805840  0.89493604  0.99452804    -0.19700
C1115       C  0.38519975  0.59151341  0.49499645    -0.21100
C1116       C  0.35431643  0.59964688  0.49930433    -0.09100
C1117       C  0.34697769  0.63092535  0.50354828     0.29700
C1118       C  0.36988068  0.65321041  0.50354052    -0.21100
C1119       C  0.40072918  0.64520497  0.49920233    -0.09200
C1120       C  0.40818682  0.61396326  0.49476325     0.29700
F1121       F  0.43752465  0.60500802  0.48967640    -0.19700
H1122       H  0.39161938  0.56773654  0.49142667     0.18100
H1123       H  0.36326984  0.67693373  0.50711474     0.18100
F1124       F  0.31765828  0.64027045  0.50796159    -0.19700
C1125       C  0.13008258  0.84612752  0.00698624    -0.21100
C1126       C  0.09903392  0.85459443  0.00700146    -0.09100
C1127       C  0.09252367  0.88518165  0.50237840     0.29700
C1128       C  0.11552261  0.90760383  0.50337728    -0.21100
C1129       C  0.14597193  0.89979000  0.00695982    -0.09200
C1130       C  0.15320767  0.86820012  0.00698603     0.29700
F1131       F  0.18265744  0.85826951  0.00652799    -0.19700
H1132       H  0.13674492  0.82215700  0.00663128     0.18100
H1133       H  0.10892836  0.93139625  0.50646435     0.18100
F1134       F  0.06293291  0.89431117  0.50497839    -0.19700
C1135       C  0.13031194  0.65277431  0.99370820    -0.21100
C1136       C  0.09960204  0.64520390  0.99966453    -0.09100
C1137       C  0.09330585  0.61414982  0.49846216     0.29700
C1138       C  0.11642343  0.59194507  0.49828784    -0.21100
C1139       C  0.14739132  0.60044479  0.49608259    -0.09200
C1140       C  0.15474483  0.63191942  0.49359853     0.29700
F1141       F  0.18414704  0.64163101  0.49061180    -0.19700
H1142       H  0.13691730  0.67634956  0.98926922     0.18100
H1143       H  0.10994775  0.56798848  0.50005478     0.18100
F1144       F  0.06380544  0.60460870  0.50047939    -0.19700
C1145       C  0.38582765  0.00251470  0.90982168    -0.21100
C1146       C  0.35538271  0.99559084  0.90172056    -0.09100
C1147       C  0.34743214  0.49009036  0.86948655     0.29700
C1148       C  0.37056551  0.49010765  0.84732963    -0.21100
C1149       C  0.40112900  0.49637958  0.85529965    -0.09200
C1150       C  0.40901832  0.00305086  0.88758194     0.29700
F1151       F  0.43778813  0.01089699  0.89640538    -0.19700
H1152       H  0.39169399  0.00812168  0.93336793     0.18100
H1153       H  0.36435319  0.48521358  0.82371087     0.18100
F1154       F  0.31839996  0.48396810  0.86016802    -0.19700
C1155       C  0.11582799  0.00331455  0.90947376    -0.21100
C1156       C  0.14678126  0.00039272  0.90098908    -0.09100
C1157       C  0.15303216  0.49282155  0.87010935     0.29700
C1158       C  0.13017180  0.49332234  0.84771069    -0.21100
C1159       C  0.10000683  0.00166253  0.85567159    -0.09200
C1160       C  0.09267468  0.00398944  0.88719272     0.29700
F1161       F  0.06324281  0.00710200  0.89668048    -0.19700
H1162       H  0.10941258  0.00520424  0.93346154     0.18100
H1163       H  0.13635565  0.48736244  0.82433475     0.18100
F1164       F  0.18169472  0.48430369  0.86156003    -0.19700
C1165       C  0.09312440  0.00940026  0.61693534    -0.21100
C1166       C  0.09995860  0.99811329  0.64648423    -0.09100
C1167       C  0.12966208  0.98689773  0.65229579     0.29700
C1168       C  0.15364262  0.49569703  0.63114622    -0.21100
C1169       C  0.14562084  0.49924889  0.60005663    -0.09200
C1170       C  0.11435630  0.50180253  0.59232888     0.29700
F1171       F  0.10523608  0.50487729  0.56263884    -0.19700
H1172       H  0.07057885  0.01844610  0.61186055     0.18100
H1173       H  0.17737182  0.49328899  0.63796099     0.18100
F1174       F  0.13725490  0.97485385  0.68004883    -0.19700
C1175       C  0.38462531  0.49488781  0.59309304    -0.21100
C1176       C  0.35416915  0.50157640  0.60140885    -0.09100
C1177       C  0.34656438  0.00563300  0.63347857     0.29700
C1178       C  0.36951868  0.00540166  0.65577971    -0.21100
C1179       C  0.40157654  0.50125761  0.64620163    -0.09200
C1180       C  0.40809922  0.49474217  0.61511491     0.29700
F1181       F  0.43693289  0.48760244  0.60595009    -0.19700
H1182       H  0.39034404  0.48943627  0.56947604     0.18100
H1183       H  0.36280239  0.00725763  0.67968458     0.18100
F1184       F  0.31707232  0.00776523  0.64308539    -0.19700
C1185       C  0.49839888  0.61478910  0.90931364    -0.21100
C1186       C  0.00496508  0.64611917  0.90048668    -0.09100
C1187       C  0.00578019  0.65361226  0.86892780     0.29700
C1188       C  0.00550612  0.63054407  0.84669293    -0.21100
C1189       C  0.50137815  0.59938282  0.85555472    -0.09200
C1190       C  0.49710373  0.59186609  0.88680129     0.29700
F1191       F  0.49115471  0.56256923  0.89570338    -0.19700
H1192       H  0.49478730  0.60834805  0.93309942     0.18100
H1193       H  0.00593372  0.63734585  0.82274027     0.18100
F1194       F  0.00630332  0.68323903  0.85917678    -0.19700
C1195       C  0.99305077  0.84661659  0.87137833    -0.21100
C1196       C  0.00224035  0.85413215  0.90142662    -0.09100
C1197       C  0.49839911  0.88544657  0.90905763     0.29700
C1198       C  0.49893776  0.90782043  0.88595819    -0.21100
C1199       C  0.00135421  0.89923084  0.85471982    -0.09200
C1200       C  0.99246071  0.86879167  0.84830383     0.29700
F1201       F  0.98255583  0.86039975  0.81991105    -0.19700
H1202       H  0.98588425  0.82346949  0.86568344     0.18100
H1203       H  0.49595082  0.93166548  0.89245342     0.18100
F1204       F  0.49426503  0.89462314  0.93861103    -0.19700
C1205       C  0.99866660  0.88395029  0.59242774    -0.21100
C1206       C  0.50073612  0.85374015  0.60115814    -0.09100
C1207       C  0.50468574  0.84651933  0.63252622     0.29700
C1208       C  0.50492028  0.86968257  0.65459323    -0.21100
C1209       C  0.00423295  0.89990167  0.64584763    -0.09200
C1210       C  0.99731643  0.90688757  0.61493553     0.29700
F1211       F  0.98840574  0.93554321  0.60643437    -0.19700
H1212       H  0.99278681  0.88989687  0.56896797     0.18100
H1213       H  0.50808695  0.86312521  0.67841173     0.18100
F1214       F  0.50860753  0.81711742  0.64219206    -0.19700
C1215       C  0.48907084  0.62939850  0.65398978    -0.21100
C1216       C  0.49841662  0.59937182  0.64672555    -0.09100
C1217       C  0.00889867  0.59159085  0.61520369     0.29700
C1218       C  0.00868821  0.61464776  0.59277702    -0.21100
C1219       C  0.49654842  0.64558467  0.60097272    -0.09200
C1220       C  0.48794525  0.65218894  0.63150845     0.29700
F1221       F  0.47811882  0.68060481  0.63981425    -0.19700
H1222       H  0.48235827  0.63536733  0.67721715     0.18100
H1223       H  0.01685760  0.60920210  0.56988985     0.18100
F1224       F  0.02024654  0.56352578  0.60766851    -0.19700
O1225       O  0.91455122  0.99911804  0.19908262    -0.75100
O1226       O  0.95265174  0.99933276  0.16326459    -0.54000
C1227       C  0.92422146  0.99878318  0.17105297     0.78600
O1228       O  0.00088394  0.08546987  0.30347846    -0.59700
O1229       O  0.00017188  0.04738022  0.33940358    -0.52700
C1230       C  0.00063377  0.07583424  0.33146357     0.70700
O1231       O  0.99986430  0.08576433  0.19984518    -0.74200
O1232       O  0.49794981  0.04691235  0.16207062    -0.54800
C1233       C  0.99897319  0.07621795  0.17179078     0.76700
O1234       O  0.91503155  0.99801827  0.30315721    -0.59400
O1235       O  0.95333147  0.49659567  0.33896132    -0.52500
C1236       C  0.92445763  0.99795128  0.33126103     0.73300
Zr1237     Zr  0.93588580  0.00027911  0.25114850     2.54700
O1238       O  0.89919437  0.04240949  0.25193956    -0.80000
O1239       O  0.90213562  0.45282615  0.24837691    -0.93400
Zr1240     Zr  0.00014390  0.06431292  0.25164381     2.64700
O1241       O  0.95997327  0.10306441  0.25158777    -0.98300
O1242       O  0.54086464  0.10187085  0.24979403    -0.80400
O1243       O  0.96757968  0.03292194  0.22133910    -0.83400
O1244       O  0.96742882  0.03268575  0.28143430    -2.18500
O1245       O  0.49828507  0.41449695  0.30263309    -0.67100
O1246       O  0.00156818  0.45168390  0.33865336    -0.51700
C1247       C  0.49892032  0.42361250  0.33073181     0.71600
O1248       O  0.58612369  0.49924572  0.20167151    -0.60000
O1249       O  0.54805263  0.00042304  0.16283904    -0.52000
C1250       C  0.57720742  0.49918579  0.17349614     0.73400
O1251       O  0.58391904  0.50374581  0.30480058    -0.71400
O1252       O  0.54620121  0.50210299  0.34080262    -0.50100
C1253       C  0.57447517  0.50350585  0.33283337     0.74800
O1254       O  0.50091752  0.41479843  0.19931246    -0.66800
O1255       O  0.50118923  0.45268891  0.16324311    -0.54000
C1256       C  0.50094245  0.42426432  0.17125408     0.73200
Zr1257     Zr  0.50096707  0.43575812  0.25122518     2.77500
O1258       O  0.54267416  0.39862896  0.25058565    -0.97500
O1259       O  0.96411533  0.39408042  0.24915582    -0.78300
Zr1260     Zr  0.56382349  0.50107788  0.25271341     2.70100
O1261       O  0.60382739  0.46233181  0.25676342    -0.79600
O1262       O  0.60502877  0.03777548  0.24909213    -0.98700
Zr1263     Zr  0.50029818  0.99988275  0.19152087     2.21500
Zr1264     Zr  0.00057575  0.49906466  0.30965701     2.11100
O1265       O  0.53287100  0.46741132  0.28196412    -2.47400
O1266       O  0.53348932  0.46788357  0.22200573    -0.79400
O1267       O  0.96906296  0.46521346  0.28053548    -0.71600
O1268       O  0.53263843  0.03293350  0.22091562    -2.32500
O1269       O  0.96898646  0.46538443  0.22038350    -2.28700
O1270       O  0.53228156  0.03253774  0.28062984    -0.73300
H1271       H  0.95484971  0.04519616  0.29474977     0.78700
H1272       H  0.54515630  0.04574082  0.20768889     0.79700
H1273       H  0.54552467  0.45496500  0.29526808     0.82000
H1274       H  0.95686453  0.45260554  0.20693573     0.79600
H1275       H  0.55680447  0.09311839  0.26342077     0.42600
H1276       H  0.60164650  0.05095727  0.26734182     0.41600
H1277       H  0.59305238  0.44254234  0.25379902     0.41300
H1278       H  0.55038573  0.39810898  0.27199079     0.39200
H1279       H  0.94631553  0.40273224  0.26027223     0.42300
H1280       H  0.89972019  0.44830556  0.22619279     0.37100
H1281       H  0.87897650  0.03225270  0.25354275     0.43200
H1282       H  0.94578929  0.09668585  0.26815170     0.39600
H1283       H  0.53247437  0.37851741  0.24768819     0.44600
H1284       H  0.88200708  0.46107314  0.25480204     0.43300
H1285       H  0.97001514  0.12181445  0.25964509     0.43400
H1286       H  0.62380113  0.02598105  0.25396344     0.43800
O1287       O  0.99729083  0.19783519  0.08616296    -0.75100
O1288       O  0.49790060  0.16270918  0.04871264    -0.54000
C1289       C  0.99772840  0.16978489  0.07701615     0.78600
O1290       O  0.91437066  0.30130926  0.00093668    -0.59700
O1291       O  0.95224110  0.33726411  0.00222799    -0.52700
C1292       C  0.92386648  0.32936933  0.00156838     0.70700
O1293       O  0.91503173  0.19706992  0.00224486    -0.74200
O1294       O  0.95252013  0.16079090  0.00053214    -0.54800
C1295       C  0.92429053  0.16895631  0.00145595     0.76700
O1296       O  0.00393841  0.30077103  0.08650212    -0.59400
O1297       O  0.00155122  0.33697125  0.04882355    -0.52500
C1298       C  0.00368833  0.32883544  0.07715767     0.73300
Zr1299     Zr  0.99975259  0.24920672  0.06511986     2.54700
O1300       O  0.95927785  0.25254605  0.10349962    -0.80000
O1301       O  0.53809817  0.24825599  0.10434148    -0.93400
Zr1302     Zr  0.93549624  0.24923604  0.00093635     2.64700
O1303       O  0.89466103  0.24824134  0.03906397    -0.98300
O1304       O  0.89923893  0.24602720  0.45679189    -0.80400
O1305       O  0.96704636  0.21927803  0.03358684    -0.83700
O1306       O  0.96689582  0.27909171  0.03394019    -2.18500
O1307       O  0.58533856  0.30203499  0.50332406    -0.67100
O1308       O  0.54789689  0.33773669  0.00437582    -0.51700
C1309       C  0.57573166  0.33005275  0.50277695     0.71600
O1310       O  0.50208145  0.19864317  0.41585273    -0.60000
O1311       O  0.50044694  0.16247781  0.45362129    -0.52000
C1312       C  0.50170401  0.17063224  0.42516885     0.73400
O1313       O  0.49717644  0.30140095  0.41521863    -0.71400
O1314       O  0.00010627  0.33813651  0.45462283    -0.50100
C1315       C  0.49851588  0.32938617  0.42470665     0.74800
O1316       O  0.58515327  0.19741426  0.00088829    -0.66800
O1317       O  0.54732198  0.16139017  0.00083495    -0.54000
C1318       C  0.57615178  0.17000309  0.50028849     0.73200
Zr1319     Zr  0.56462020  0.24974787  0.00403893     2.77500
O1320       O  0.60271278  0.25076994  0.46116849    -0.97500
O1321       O  0.59992693  0.24627324  0.04734559    -0.78300
Zr1322     Zr  0.49994207  0.25007112  0.43717832     2.70100
O1323       O  0.53958589  0.25150442  0.39781209    -0.79600
O1324       O  0.96495612  0.24991306  0.39641151    -0.98700
Zr1325     Zr  0.50031999  0.19093727  0.00067934     2.21500
Zr1326     Zr  0.99967231  0.30826759  0.00126872     2.11100
O1327       O  0.53275322  0.27983389  0.46875467    -2.47400
O1328       O  0.53261438  0.22033285  0.46896347    -0.79400
O1329       O  0.53188297  0.27996068  0.03541742    -0.71600
O1330       O  0.96896803  0.21967176  0.46729588    -2.32500
O1331       O  0.53177056  0.21968550  0.03507428    -2.28700
O1332       O  0.96857422  0.27945213  0.46778808    -0.73300
H1333       H  0.95450350  0.29228536  0.04676261     0.78700
H1334       H  0.95689970  0.20653904  0.45414685     0.79700
H1335       H  0.54530377  0.29300648  0.45608330     0.82000
H1336       H  0.54377123  0.20624002  0.04802384     0.79600
H1337       H  0.90532155  0.26277309  0.44265042     0.42600
H1338       H  0.95010361  0.26605726  0.40233278     0.41600
H1339       H  0.55734349  0.24102920  0.40731624     0.41300
H1340       H  0.60292349  0.27217616  0.45346839     0.39200
H1341       H  0.59007522  0.25831649  0.06393926     0.42300
H1342       H  0.54670532  0.22723720  0.10315074     0.37100
H1343       H  0.96890667  0.24537752  0.12282196     0.43200
H1344       H  0.90297699  0.25975612  0.05684204     0.39600
H1345       H  0.62245859  0.24837511  0.47208655     0.44600
H1346       H  0.52691439  0.24871810  0.12413905     0.43300
H1347       H  0.87842934  0.26168554  0.03060562     0.43400
H1348       H  0.97578991  0.25848856  0.37835356     0.43800
O1349       O  0.80122113  0.08515283  0.00107511    -0.75100
O1350       O  0.83741587  0.04749339  0.00016001    -0.54000
C1351       C  0.82920684  0.07589930  0.00065721     0.78600
O1352       O  0.69942997  0.50166386  0.08870301    -0.59700
O1353       O  0.66300073  0.00002516  0.04878152    -0.52700
C1354       C  0.67091620  0.99951606  0.07726616     0.70700
O1355       O  0.80312840  0.50517291  0.08681324    -0.74200
O1356       O  0.83873942  0.50134334  0.04873035    -0.54800
C1357       C  0.83024046  0.99850798  0.07670870     0.76700
O1358       O  0.69821120  0.08452054  0.99890456    -0.59400
O1359       O  0.66219217  0.04672680  0.00003680    -0.52500
C1360       C  0.67024474  0.07518302  0.99925103     0.73300
Zr1361     Zr  0.74988307  0.06341706  0.99995999     2.54700
O1362       O  0.74781652  0.10278238  0.03959764    -0.80000
O1363       O  0.75078262  0.10386541  0.46304916    -0.93400
Zr1364     Zr  0.75101273  0.50282699  0.06692943     2.64700
O1365       O  0.75134672  0.04373853  0.10070890    -0.98300
O1366       O  0.75348101  0.46536162  0.10848971    -0.80400
O1367       O  0.78023094  0.03266159  0.03312636    -0.83700
O1368       O  0.72026217  0.03231238  0.03314864    -2.18500
O1369       O  0.69878412  0.00250031  0.41522429    -0.67100
O1370       O  0.66262536  0.00055660  0.45285649    -0.51700
C1371       C  0.66993848  0.50223933  0.42558224     0.71600
O1372       O  0.80156557  0.41426764  0.00385134    -0.60000
O1373       O  0.83786381  0.45179556  0.00244385    -0.52000
C1374       C  0.82890719  0.42246467  0.49783038     0.73400
O1375       O  0.69832528  0.41468614  0.00758833    -0.71400
O1376       O  0.66224898  0.45231891  0.00560406    -0.50100
C1377       C  0.66980720  0.42399526  0.50341030     0.74800
O1378       O  0.80195755  0.00012280  0.41567358    -0.66800
O1379       O  0.83758660  0.49805689  0.45312864    -0.54000
C1380       C  0.82951325  0.49578050  0.42474204     0.73200
Zr1381     Zr  0.75037123  0.00131871  0.43667432     2.77500
O1382       O  0.74670248  0.46116591  0.39641367    -0.97500
O1383       O  0.75160783  0.04333457  0.39979262    -0.78300
Zr1384     Zr  0.75003234  0.43552764  0.00601532     2.70100
O1385       O  0.74664899  0.39624550  0.46008299    -0.79600
O1386       O  0.75129255  0.39992113  0.04920836    -0.98700
Zr1387     Zr  0.80935361  0.49944606  0.00148355     2.21500
Zr1388     Zr  0.69116550  0.99909720  0.00083303     2.11100
O1389       O  0.71989514  0.46710822  0.46815747    -2.47400
O1390       O  0.77941920  0.46693447  0.46820530    -0.79400
O1391       O  0.72029246  0.03322045  0.46874137    -0.71600
O1392       O  0.78048144  0.46856212  0.03657224    -2.32500
O1393       O  0.78034324  0.03297559  0.46909332    -2.28700
O1394       O  0.72054851  0.46868200  0.03741868    -0.73300
H1395       H  0.70708102  0.04510656  0.04559580     0.78700
H1396       H  0.79375068  0.45649216  0.04958438     0.79700
H1397       H  0.70644566  0.45478542  0.45555754     0.82000
H1398       H  0.79359413  0.04574404  0.45676072     0.79600
H1399       H  0.73949770  0.44866783  0.10199906     0.42600
H1400       H  0.73102140  0.40205657  0.05917123     0.41600
H1401       H  0.73642801  0.40669170  0.44266068     0.41300
H1402       H  0.72642142  0.45137219  0.39909069     0.39200
H1403       H  0.75018164  0.03317004  0.37946929     0.42300
H1404       H  0.76667251  0.09731301  0.44820034     0.37100
H1405       H  0.75811450  0.09334064  0.05753887     0.43200
H1406       H  0.73019474  0.05191343  0.10059077     0.39600
H1407       H  0.74486427  0.47303107  0.37707575     0.44600
H1408       H  0.75968505  0.12201539  0.47348087     0.43300
H1409       H  0.75370067  0.03423832  0.12125789     0.43400
H1410       H  0.75076530  0.37931436  0.03953602     0.43800
C1411       C  0.86965489  0.34646889  0.99461246    -0.21100
C1412       C  0.90021972  0.35401128  0.00141708    -0.09100
C1413       C  0.90729264  0.38447200  0.49628677     0.29700
C1414       C  0.88425647  0.40681945  0.49650963    -0.21100
C1415       C  0.85314894  0.39844367  0.49665746    -0.09200
C1416       C  0.84669946  0.36875724  0.99515330     0.29700
F1417       F  0.81757867  0.35996090  0.98866908    -0.19700
H1418       H  0.86331073  0.32309105  0.98891383     0.18100
H1419       H  0.89090611  0.43079103  0.49671667     0.18100
F1420       F  0.93691569  0.39387527  0.49607857    -0.19700
C1421       C  0.88444604  0.09121507  0.99700805    -0.21100
C1422       C  0.85357731  0.09969678  0.00070697    -0.09100
C1423       C  0.84644940  0.13107407  0.00454670     0.29700
C1424       C  0.86959926  0.15306619  0.00491801    -0.21100
C1425       C  0.90045408  0.14466470  0.00137259    -0.09200
C1426       C  0.90768182  0.11332599  0.99734757     0.29700
F1427       F  0.93705109  0.10386585  0.99350380    -0.19700
H1428       H  0.89073549  0.06735698  0.99377132     0.18100
H1429       H  0.86314071  0.17688968  0.00808024     0.18100
F1430       F  0.81715831  0.14082064  0.00825472    -0.19700
C1431       C  0.62882749  0.34784441  0.51415808    -0.21100
C1432       C  0.59917017  0.35470836  0.50372758    -0.09100
C1433       C  0.59249668  0.38545312  0.00158185     0.29700
C1434       C  0.61540103  0.40794063  0.00199299    -0.21100
C1435       C  0.64527845  0.40043468  0.50466214    -0.09200
C1436       C  0.65159139  0.37031342  0.51474603     0.29700
F1437       F  0.67973799  0.36240783  0.52536701    -0.19700
H1438       H  0.63451922  0.32492621  0.52201823     0.18100
H1439       H  0.60913198  0.43148730  0.99694812     0.18100
F1440       F  0.56346301  0.39414453  0.99465907    -0.19700
C1441       C  0.62987140  0.15259785  0.49059436    -0.21100
C1442       C  0.59992676  0.14548155  0.50008089    -0.09100
C1443       C  0.59233856  0.11372385  0.00651528     0.29700
C1444       C  0.61536597  0.09128309  0.00612066    -0.21100
C1445       C  0.64583291  0.09905157  0.99905544    -0.09200
C1446       C  0.65272038  0.12999153  0.99231079     0.29700
F1447       F  0.68157421  0.13889929  0.98490336    -0.19700
H1448       H  0.63558641  0.17557390  0.48293693     0.18100
H1449       H  0.60932267  0.06780240  0.01171968     0.18100
F1450       F  0.56344382  0.10507118  0.01405090    -0.19700
C1451       C  0.88523969  0.49596235  0.40945291    -0.21100
C1452       C  0.85415212  0.49394183  0.40098872    -0.09100
C1453       C  0.84678022  0.99632879  0.36970636     0.29700
C1454       C  0.86973421  0.99595597  0.34749390    -0.21100
C1455       C  0.90078473  0.99738635  0.35578728    -0.09200
C1456       C  0.90848930  0.49576590  0.38716331     0.29700
F1457       F  0.93796739  0.49875775  0.39659544    -0.19700
H1458       H  0.89167062  0.49828138  0.43340011     0.18100
H1459       H  0.86294979  0.99467837  0.32356924     0.18100
F1460       F  0.81727134  0.99483801  0.36002060    -0.19700
C1461       C  0.61457400  0.50824507  0.41058065    -0.21100
C1462       C  0.64527072  0.50306543  0.40203344    -0.09100
C1463       C  0.65372919  0.00289990  0.36899956     0.29700
C1464       C  0.63066683  0.00296461  0.34683764    -0.21100
C1465       C  0.59828626  0.50412601  0.35713023    -0.09200
C1466       C  0.59127968  0.50902125  0.38839824     0.29700
F1467       F  0.56215387  0.51494898  0.39757667    -0.19700
H1468       H  0.60856754  0.51200763  0.43445430     0.18100
H1469       H  0.63737699  0.00366008  0.32287094     0.18100
F1470       F  0.68322904  0.00350667  0.35920149    -0.19700
C1471       C  0.59337099  0.50351571  0.11836895    -0.21100
C1472       C  0.60130245  0.49919320  0.14939682    -0.09100
C1473       C  0.63250568  0.49564428  0.15705344     0.29700
C1474       C  0.65412094  0.00282223  0.13213593    -0.21100
C1475       C  0.64633505  0.99979288  0.10092187    -0.09200
C1476       C  0.61511106  0.99727681  0.09296272     0.29700
F1477       F  0.60617978  0.99480526  0.06316613    -0.19700
H1478       H  0.56967999  0.50659719  0.11170128     0.18100
H1479       H  0.67779423  0.00526141  0.13913745     0.18100
F1480       F  0.64165133  0.49126765  0.18657963    -0.19700
C1481       C  0.88487113  0.00538045  0.09305513    -0.21100
C1482       C  0.85461968  0.99720864  0.10042644    -0.09100
C1483       C  0.84889630  0.51260342  0.13151490     0.29700
C1484       C  0.87169777  0.51145833  0.15387797    -0.21100
C1485       C  0.90077313  0.99749392  0.14624905    -0.09200
C1486       C  0.90776457  0.00542308  0.11558740     0.29700
F1487       F  0.93649239  0.01397291  0.10736564    -0.19700
H1488       H  0.89078725  0.01230643  0.06987979     0.18100
H1489       H  0.86559355  0.51709585  0.17735660     0.18100
F1490       F  0.82036643  0.52133275  0.14028661    -0.19700
C1491       C  0.01099867  0.11574290  0.40855764    -0.21100
C1492       C  0.50250965  0.14628825  0.40123421    -0.09100
C1493       C  0.50935724  0.15335528  0.37031228     0.29700
C1494       C  0.50912015  0.13036823  0.34791640    -0.21100
C1495       C  0.00070691  0.09945039  0.35598381    -0.09200
C1496       C  0.01035259  0.09266220  0.38613932     0.29700
F1497       F  0.01976994  0.06395859  0.39385847    -0.19700
H1498       H  0.01890533  0.11004122  0.43147231     0.18100
H1499       H  0.51462204  0.13667458  0.32446480     0.18100
F1500       F  0.51622929  0.18247166  0.36142516    -0.19700
C1501       C  0.49273155  0.34618945  0.37009984    -0.21100
C1502       C  0.49812867  0.35391525  0.40102550    -0.09100
C1503       C  0.00484128  0.38586506  0.40946399     0.29700
C1504       C  0.00502588  0.40802283  0.38612511    -0.21100
C1505       C  0.49824419  0.39964682  0.35484476    -0.09200
C1506       C  0.49270407  0.36863357  0.34727536     0.29700
F1507       F  0.48699981  0.35975875  0.31786976    -0.19700
H1508       H  0.48841081  0.32261362  0.36338781     0.18100
H1509       H  0.00843423  0.43186448  0.39241698     0.18100
F1510       F  0.00889551  0.39522406  0.43896894    -0.19700
C1511       C  0.50167124  0.38472699  0.09315110    -0.21100
C1512       C  0.00559352  0.35336092  0.10078284    -0.09100
C1513       C  0.01122105  0.34613718  0.13186179     0.29700
C1514       C  0.01122105  0.36913821  0.15411023    -0.21100
C1515       C  0.50010588  0.40044469  0.14685986    -0.09200
C1516       C  0.50255654  0.40788696  0.11539695     0.29700
F1517       F  0.50596484  0.43739910  0.10591049    -0.19700
H1518       H  0.50396086  0.39115911  0.06920186     0.18100
H1519       H  0.01529551  0.36257883  0.17778726     0.18100
F1520       F  0.01672080  0.31684398  0.14105995    -0.19700
C1521       C  0.99672910  0.13100099  0.15511464    -0.21100
C1522       C  0.99843982  0.09977458  0.14714844    -0.09100
C1523       C  0.49634193  0.09178778  0.11414442     0.29700
C1524       C  0.49649178  0.11512939  0.09205714    -0.21100
C1525       C  0.99739000  0.14573063  0.10113730    -0.09200
C1526       C  0.99603831  0.15369740  0.13258102     0.29700
F1527       F  0.99384652  0.18340909  0.14189314    -0.19700
H1528       H  0.99573065  0.13808099  0.17897756     0.18100
H1529       H  0.49911410  0.10882356  0.06809944     0.18100
F1530       F  0.49910407  0.06229776  0.10438045    -0.19700
O1531       O  0.91496058  0.99637616  0.69962362    -0.75100
O1532       O  0.95260746  0.99708006  0.66339767    -0.54000
C1533       C  0.92428439  0.99656719  0.67152626     0.78600
O1534       O  0.00075133  0.08456816  0.80286985    -0.59700
O1535       O  0.99802936  0.04669131  0.83903512    -0.52700
C1536       C  0.99961129  0.07506086  0.83090464     0.70700
O1537       O  0.99567718  0.08461461  0.69924601    -0.74200
O1538       O  0.49939536  0.04745509  0.66316650    -0.54800
C1539       C  0.99644504  0.07500048  0.67123402     0.76700
O1540       O  0.91475379  0.99288167  0.80274882    -0.59400
O1541       O  0.95206336  0.49942853  0.83831983    -0.52500
C1542       C  0.92423855  0.99406159  0.83077259     0.73300
Zr1543     Zr  0.93647064  0.99569289  0.75125756     2.54700
O1544       O  0.89629509  0.03440457  0.75255168    -0.80000
O1545       O  0.89707933  0.46058445  0.75054789    -0.93400
Zr1546     Zr  0.99668370  0.06339754  0.75106037     2.64700
O1547       O  0.95059198  0.09496338  0.75162945    -0.98300
O1548       O  0.53600202  0.10516886  0.75153187    -0.80400
O1549       O  0.96612477  0.02989296  0.72110325    -0.83400
O1550       O  0.96597015  0.03022308  0.78125075    -2.18500
O1551       O  0.50153557  0.41433785  0.80263095    -0.67100
O1552       O  0.99988988  0.45176163  0.83895220    -0.51700
C1553       C  0.50126098  0.42386287  0.83068023     0.71600
O1554       O  0.58711289  0.49885729  0.70059537    -0.60000
O1555       O  0.54796028  0.99924320  0.66266047    -0.52000
C1556       C  0.57784568  0.49857510  0.67252148     0.73400
O1557       O  0.58604682  0.50103662  0.80391556    -0.71400
O1558       O  0.54787494  0.50033528  0.83951417    -0.50100
C1559       C  0.57632158  0.50072164  0.83189587     0.74800
O1560       O  0.50443115  0.41515248  0.69852624    -0.66800
O1561       O  0.50210439  0.45319679  0.66266332    -0.54000
C1562       C  0.50366044  0.42483188  0.67055094     0.73200
Zr1563     Zr  0.50205240  0.43536090  0.75070762     2.77500
O1564       O  0.54297918  0.39743699  0.75195353    -0.97500
O1565       O  0.96050288  0.39562856  0.75011484    -0.78300
Zr1566     Zr  0.56514654  0.50056069  0.75187777     2.70100
O1567       O  0.60512071  0.46155153  0.75421284    -0.79600
O1568       O  0.60179307  0.04368271  0.74865686    -0.98700
Zr1569     Zr  0.50046014  0.00001016  0.69191195     2.21500
Zr1570     Zr  0.00001552  0.49948550  0.81001423     2.11100
O1571       O  0.53382753  0.46732413  0.78107996    -2.47400
O1572       O  0.53438013  0.46760324  0.72129248    -0.79400
O1573       O  0.96740355  0.46699476  0.78062014    -0.71600
O1574       O  0.53228710  0.03366189  0.72106211    -2.32500
O1575       O  0.96757025  0.46695066  0.72099667    -2.28700
O1576       O  0.53248274  0.03315100  0.78088879    -0.73300
H1577       H  0.95282177  0.04215178  0.79455146     0.78700
H1578       H  0.54444738  0.04672765  0.70776356     0.79700
H1579       H  0.54646259  0.45483664  0.79434508     0.82000
H1580       H  0.95476797  0.45451546  0.70788597     0.79600
H1581       H  0.55532541  0.09528168  0.74494231     0.42600
H1582       H  0.59718355  0.05634484  0.76700663     0.41600
H1583       H  0.59580545  0.44308343  0.74476074     0.41300
H1584       H  0.53247157  0.37747079  0.74916563     0.39200
H1585       H  0.97189503  0.37595867  0.75047416     0.42300
H1586       H  0.90253836  0.44690000  0.73320486     0.37100
H1587       H  0.90323776  0.05038345  0.73792349     0.43200
H1588       H  0.94713745  0.09999643  0.77356068     0.39600
H1589       H  0.55438433  0.40060520  0.73253598     0.44600
H1590       H  0.87831987  0.47133570  0.74365492     0.43300
H1591       H  0.95688447  0.11466021  0.74215909     0.43400
H1592       H  0.62171735  0.03390081  0.75334962     0.43800
O1593       O  0.99468994  0.19710067  0.58657008    -0.75100
O1594       O  0.49957339  0.16318385  0.55007426    -0.54000
C1595       C  0.99604771  0.16913876  0.57718552     0.78600
O1596       O  0.91441890  0.30055166  0.49581762    -0.59700
O1597       O  0.95169453  0.33682320  0.50040155    -0.52700
C1598       C  0.92355151  0.32864171  0.49747848     0.70700
O1599       O  0.91534870  0.19684613  0.50165687    -0.74200
O1600       O  0.95314645  0.16083664  0.50163194    -0.54800
C1601       C  0.92479643  0.16877827  0.50219634     0.76700
O1602       O  0.99727142  0.29988322  0.58768770    -0.59400
O1603       O  0.99876970  0.33630275  0.55013013    -0.52500
C1604       C  0.99800890  0.32792146  0.57846394     0.73300
Zr1605     Zr  0.99714691  0.24873982  0.56573325     2.54700
O1606       O  0.95616113  0.24871190  0.60369659    -0.80000
O1607       O  0.54087177  0.24984078  0.60434467    -0.93400
Zr1608     Zr  0.93589468  0.24897136  0.49884162     2.64700
O1609       O  0.89527371  0.25121596  0.53708360    -0.98300
O1610       O  0.89898783  0.24849360  0.95869469    -0.80400
O1611       O  0.96599000  0.21895238  0.53269638    -0.83700
O1612       O  0.96576592  0.27886950  0.53308570    -2.18500
O1613       O  0.58569802  0.30172368  0.00673796    -0.67100
O1614       O  0.54739497  0.33797874  0.50160748    -0.51700
C1615       C  0.57620062  0.32978089  0.00620176     0.71600
O1616       O  0.50334951  0.19894581  0.91521246    -0.60000
O1617       O  0.50191273  0.16257385  0.95277497    -0.52000
C1618       C  0.50278295  0.17081862  0.92438201     0.73400
O1619       O  0.50186863  0.30273048  0.91631693    -0.71400
O1620       O  0.99885271  0.33710237  0.95362791    -0.50100
C1621       C  0.50176729  0.33076135  0.92591066     0.74800
O1622       O  0.58559043  0.19808950  0.49997317    -0.66800
O1623       O  0.54777844  0.16200266  0.50094712    -0.54000
C1624       C  0.57567870  0.16931577  0.00052928     0.73200
Zr1625     Zr  0.56427385  0.25004878  0.50171530     2.77500
O1626       O  0.60669277  0.25096202  0.96734459    -0.97500
O1627       O  0.60136750  0.24919307  0.54355372    -0.78300
Zr1628     Zr  0.50260833  0.25059594  0.93700129     2.70100
O1629       O  0.54440776  0.25107563  0.90003339    -0.79600
O1630       O  0.95736731  0.24712264  0.89986281    -0.98700
Zr1631     Zr  0.50024312  0.19100203  0.50169286     2.21500
Zr1632     Zr  0.99954053  0.30871137  0.50197610     2.11100
O1633       O  0.53421097  0.27990753  0.97024421    -2.47400
O1634       O  0.53414696  0.22055671  0.96963188    -0.79400
O1635       O  0.53255779  0.28020036  0.53399773    -0.71600
O1636       O  0.96689318  0.21931269  0.96810255    -2.32500
O1637       O  0.53278245  0.22026950  0.53458282    -2.28700
O1638       O  0.96712427  0.27917564  0.96840857    -0.73300
H1639       H  0.95265386  0.29193209  0.54529560     0.78700
H1640       H  0.95433561  0.20615840  0.95542045     0.79700
H1641       H  0.54721229  0.29319475  0.95822219     0.82000
H1642       H  0.54527717  0.20706213  0.54727102     0.79600
H1643       H  0.87943327  0.24220226  0.96832545     0.42600
H1644       H  0.94695848  0.26723798  0.90186661     0.41600
H1645       H  0.53512881  0.24365956  0.88062201     0.41300
H1646       H  0.60327674  0.26979385  0.95504798     0.39200
H1647       H  0.59243507  0.26273011  0.55951136     0.42300
H1648       H  0.53027327  0.25286323  0.62424549     0.37100
H1649       H  0.96624861  0.24289573  0.62324112     0.43200
H1650       H  0.90100248  0.26840298  0.55085601     0.39600
H1651       H  0.62501941  0.25556713  0.97994049     0.44600
H1652       H  0.55233804  0.26919413  0.60107141     0.43300
H1653       H  0.87718506  0.25883685  0.52567194     0.43400
H1654       H  0.96735686  0.24783357  0.87944172     0.43800
O1655       O  0.80192896  0.08467173  0.50362833    -0.75100
O1656       O  0.83797796  0.04691030  0.50243012    -0.54000
C1657       C  0.82988012  0.07531182  0.50342830     0.78600
O1658       O  0.69914793  0.49810809  0.58731235    -0.59700
O1659       O  0.66283568  0.99844567  0.54833283    -0.52700
C1660       C  0.67064696  0.99804823  0.57682629     0.70700
O1661       O  0.80197334  0.50033246  0.58682367    -0.74200
O1662       O  0.83783982  0.49930956  0.54885047    -0.54800
C1663       C  0.82935416  0.99878563  0.57784402     0.76700
O1664       O  0.69879414  0.08550008  0.50025888    -0.59400
O1665       O  0.66269670  0.04770332  0.50086337    -0.52500
C1666       C  0.67082852  0.07614732  0.50028160     0.73300
Zr1667     Zr  0.75021645  0.06386829  0.50219448     2.54700
O1668       O  0.74876107  0.10147140  0.54357411    -0.80000
O1669       O  0.74896285  0.10110921  0.95867877    -0.93400
Zr1670     Zr  0.75049450  0.49870545  0.56552505     2.64700
O1671       O  0.75073508  0.03662193  0.60584355    -0.98300
O1672       O  0.75199269  0.45740601  0.60320496    -0.80400
O1673       O  0.77990419  0.03144084  0.53428750    -0.83700
O1674       O  0.72028968  0.03174928  0.53425014    -2.18500
O1675       O  0.69921161  0.99919098  0.91515790    -0.67100
O1676       O  0.66294928  0.99874240  0.95278835    -0.51700
C1677       C  0.67005802  0.49923422  0.92695208     0.71600
O1678       O  0.80088182  0.41337237  0.49727744    -0.60000
O1679       O  0.83720183  0.45082329  0.49960090    -0.52000
C1680       C  0.82956465  0.42344371  0.00288268     0.73400
O1681       O  0.69769498  0.41437995  0.50335110    -0.71400
O1682       O  0.66190476  0.45245912  0.50216121    -0.50100
C1683       C  0.67036608  0.42395017  0.00717144     0.74800
O1684       O  0.80194922  0.99599515  0.91550609    -0.66800
O1685       O  0.83704221  0.49829406  0.95277369    -0.54000
C1686       C  0.82876011  0.49781382  0.92430042     0.73200
Zr1687     Zr  0.75049664  0.99845450  0.93671007     2.77500
O1688       O  0.74773512  0.45308197  0.90251925    -0.97500
O1689       O  0.75149005  0.03947954  0.89867800    -0.78300
Zr1690     Zr  0.74957841  0.43497201  0.50050259     2.70100
O1691       O  0.74745946  0.39174192  0.97133306    -0.79600
O1692       O  0.75345306  0.39608385  0.54059113    -0.98700
Zr1693     Zr  0.80917466  0.49904866  0.50105144     2.21500
Zr1694     Zr  0.69118392  0.99974574  0.50062617     2.11100
O1695       O  0.72019719  0.46539880  0.97166751    -2.47400
O1696       O  0.77967437  0.46499043  0.97095417    -0.79400
O1697       O  0.72022822  0.03131966  0.96770256    -0.71600
O1698       O  0.77986432  0.46601419  0.53347003    -2.32500
O1699       O  0.78018622  0.03172989  0.96769163    -2.28700
O1700       O  0.72022545  0.46650522  0.53372895    -0.73300
H1701       H  0.70713336  0.04422529  0.54704246     0.78700
H1702       H  0.79298802  0.45317926  0.54589131     0.79700
H1703       H  0.70687729  0.45226647  0.95976349     0.82000
H1704       H  0.79330500  0.04413087  0.95488652     0.79600
H1705       H  0.73361419  0.44486839  0.59872569     0.42600
H1706       H  0.73638537  0.40069842  0.55483712     0.41600
H1707       H  0.73749848  0.39985821  0.95257163     0.41300
H1708       H  0.72578683  0.44760691  0.90097629     0.39200
H1709       H  0.75523133  0.02889767  0.87887075     0.42300
H1710       H  0.76774054  0.09704087  0.94660835     0.37100
H1711       H  0.75583760  0.09002775  0.56191668     0.43200
H1712       H  0.73261428  0.04970742  0.60188861     0.39600
H1713       H  0.75278760  0.46206261  0.88222824     0.44600
H1714       H  0.75292587  0.12096578  0.96906745     0.43300
H1715       H  0.74554168  0.02510980  0.62477183     0.43400
H1716       H  0.74741212  0.37667044  0.53036903     0.43800
C1717       C  0.86861651  0.34464171  0.49600074    -0.21100
C1718       C  0.89970344  0.35297959  0.49637637    -0.09100
C1719       C  0.90739102  0.38490168  0.00823792     0.29700
C1720       C  0.88440313  0.40731962  0.00849808    -0.21100
C1721       C  0.85379901  0.39956040  0.00215424    -0.09200
C1722       C  0.84563384  0.36689065  0.49610230     0.29700
F1723       F  0.81609388  0.35718969  0.49599447    -0.19700
H1724       H  0.86185468  0.32069338  0.49597060     0.18100
H1725       H  0.89058004  0.43076521  0.01413229     0.18100
F1726       F  0.93641684  0.39354282  0.01525231    -0.19700
C1727       C  0.88528138  0.09054721  0.50157033    -0.21100
C1728       C  0.85430515  0.09904239  0.50412597    -0.09100
C1729       C  0.84704253  0.13047055  0.50706171     0.29700
C1730       C  0.87008691  0.15261472  0.50657721    -0.21100
C1731       C  0.90103673  0.14428654  0.50345449    -0.09200
C1732       C  0.90843722  0.11278607  0.50137326     0.29700
F1733       F  0.93791811  0.10327587  0.49884857    -0.19700
H1734       H  0.89171404  0.06659642  0.49950371     0.18100
H1735       H  0.86347194  0.17650718  0.50867848     0.18100
F1736       F  0.81767976  0.14011382  0.51052994    -0.19700
C1737       C  0.63033109  0.34673743  0.01401353    -0.21100
C1738       C  0.59975799  0.35441930  0.00749499    -0.09100
C1739       C  0.59259488  0.38499855  0.49427300     0.29700
C1740       C  0.61543393  0.40755268  0.49485978    -0.21100
C1741       C  0.64604460  0.40010306  0.00808503    -0.09200
C1742       C  0.65320394  0.36910010  0.01421976     0.29700
F1743       F  0.68234078  0.36008693  0.02030556    -0.19700
H1744       H  0.63677377  0.32318618  0.01880169     0.18100
H1745       H  0.60989524  0.43046395  0.48687668     0.18100
F1746       F  0.56444323  0.39274083  0.48356069    -0.19700
C1747       C  0.62979745  0.15232671  0.99276994    -0.21100
C1748       C  0.59934713  0.14467989  0.99983156    -0.09100
C1749       C  0.59351103  0.11517624  0.50962973     0.29700
C1750       C  0.61658677  0.09279942  0.50960791    -0.21100
C1751       C  0.64644983  0.09996260  0.49989173    -0.09200
C1752       C  0.65276787  0.13019531  0.49016755     0.29700
F1753       F  0.68086158  0.13808533  0.47939089    -0.19700
H1754       H  0.63603526  0.17579796  0.98736340     0.18100
H1755       H  0.61108855  0.06984964  0.51750919     0.18100
F1756       F  0.56518284  0.10718179  0.51963411    -0.19700
C1757       C  0.88419717  0.49787173  0.90850900    -0.21100
C1758       C  0.85306498  0.49856294  0.90017943    -0.09100
C1759       C  0.84704590  0.98762837  0.87007836     0.29700
C1760       C  0.86997517  0.98705367  0.84775717    -0.21100
C1761       C  0.90060767  0.99344618  0.85538393    -0.09200
C1762       C  0.90727471  0.49793539  0.88613292     0.29700
F1763       F  0.93686459  0.49651315  0.89553817    -0.19700
H1764       H  0.89083568  0.49694296  0.93248482     0.18100
H1765       H  0.86355586  0.98163316  0.82431172     0.18100
F1766       F  0.81793589  0.98113664  0.86124285    -0.19700
C1767       C  0.61484401  0.50301095  0.91078382    -0.21100
C1768       C  0.64587408  0.49963935  0.90282620    -0.09100
C1769       C  0.65428122  0.00678529  0.86955975     0.29700
C1770       C  0.63138176  0.00730733  0.84725359    -0.21100
C1771       C  0.59980397  0.50045150  0.85673436    -0.09200
C1772       C  0.59202944  0.50349646  0.88810272     0.29700
F1773       F  0.56249233  0.50718439  0.89703629    -0.19700
H1774       H  0.60813636  0.50546780  0.93463616     0.18100
H1775       H  0.63778636  0.01268734  0.82380034     0.18100
F1776       F  0.68334360  0.01348819  0.86074335    -0.19700
C1777       C  0.59420922  0.50649609  0.61792959    -0.21100
C1778       C  0.60158408  0.49783317  0.64817025    -0.09100
C1779       C  0.63197708  0.48923261  0.65491723     0.29700
C1780       C  0.65367207  0.99306317  0.63132373    -0.21100
C1781       C  0.64605900  0.99784625  0.60032614    -0.09200
C1782       C  0.61509399  0.00266095  0.59249747     0.29700
F1783       F  0.60657421  0.00789079  0.56292825    -0.19700
H1784       H  0.57116709  0.51363048  0.61212575     0.18100
H1785       H  0.67717913  0.98905906  0.63817815     0.18100
F1786       F  0.64036175  0.48042451  0.68366987    -0.19700
C1787       C  0.88446372  0.99284946  0.59353135    -0.21100
C1788       C  0.85375233  0.99824354  0.60175272    -0.09100
C1789       C  0.84768386  0.51025060  0.63157841     0.29700
C1790       C  0.87069953  0.51038418  0.65380908    -0.21100
C1791       C  0.90039745  0.99654689  0.64716610    -0.09200
C1792       C  0.90756352  0.99199369  0.61587697     0.29700
F1793       F  0.93677289  0.98653846  0.60673161    -0.19700
H1794       H  0.89069891  0.98911055  0.56971580     0.18100
H1795       H  0.86467897  0.51678650  0.67711461     0.18100
F1796       F  0.81899987  0.51862024  0.64022032    -0.19700
C1797       C  0.98641995  0.11710395  0.90627498    -0.21100
C1798       C  0.50277134  0.14632048  0.90053863    -0.09100
C1799       C  0.50255626  0.15365361  0.86895983     0.29700
C1800       C  0.50203454  0.13044701  0.84689546    -0.21100
C1801       C  0.00031450  0.09871483  0.85529347    -0.09200
C1802       C  0.98557316  0.09417305  0.88372001     0.29700
F1803       F  0.96928507  0.06819272  0.88925492    -0.19700
H1804       H  0.97456227  0.11328935  0.92782108     0.18100
H1805       H  0.50156595  0.13712235  0.82290524     0.18100
F1806       F  0.50300797  0.18323192  0.85906290    -0.19700
C1807       C  0.49262844  0.34775688  0.87200708    -0.21100
C1808       C  0.50164369  0.35520500  0.90211683    -0.09100
C1809       C  0.98955686  0.38416048  0.90829419     0.29700
C1810       C  0.98986219  0.40668855  0.88528723    -0.21100
C1811       C  0.50116880  0.40033014  0.85526942    -0.09200
C1812       C  0.49234596  0.36988606  0.84888199     0.29700
F1813       F  0.48275380  0.36142140  0.82042025    -0.19700
H1814       H  0.48541779  0.32464470  0.86625424     0.18100
H1815       H  0.98243884  0.42974937  0.89098479     0.18100
F1816       F  0.98011987  0.39213461  0.93695209    -0.19700
C1817       C  0.49594354  0.38515737  0.59314389    -0.21100
C1818       C  0.99783808  0.35221508  0.60219458    -0.09100
C1819       C  0.00170642  0.34502205  0.63354047     0.29700
C1820       C  0.00177060  0.36825845  0.65550453    -0.21100
C1821       C  0.50438315  0.40135994  0.64601633    -0.09200
C1822       C  0.49604134  0.40825371  0.61547290     0.29700
F1823       F  0.48704391  0.43696346  0.60725087    -0.19700
H1824       H  0.48893732  0.39095579  0.56996457     0.18100
H1825       H  0.00525976  0.36187377  0.67932302     0.18100
F1826       F  0.00558472  0.31561396  0.64324007    -0.19700
C1827       C  0.98839497  0.12906886  0.65425180    -0.21100
C1828       C  0.99529743  0.09849025  0.64661580    -0.09100
C1829       C  0.49835368  0.09235550  0.61557915     0.29700
C1830       C  0.49827876  0.11569391  0.59349120    -0.21100
C1831       C  0.99485446  0.14474904  0.60095269    -0.09200
C1832       C  0.98817042  0.15193473  0.63187981     0.29700
F1833       F  0.98146560  0.18106186  0.64083459    -0.19700
H1834       H  0.98323175  0.13551333  0.67775256     0.18100
H1835       H  0.49958101  0.10929348  0.56945352     0.18100
F1836       F  0.50015183  0.06276635  0.60583707    -0.19700
O1837       O  0.91567046  0.50138592  0.19887695    -0.75100
O1838       O  0.95355919  0.50005442  0.16288798    -0.54000
C1839       C  0.92526990  0.50149733  0.17083763     0.78600
O1840       O  0.00213421  0.58530206  0.30179596    -0.59700
O1841       O  0.00032292  0.54725972  0.33765922    -0.52700
C1842       C  0.00165698  0.57571816  0.32975032     0.70700
O1843       O  0.99754867  0.58512488  0.19904526    -0.74200
O1844       O  0.49923796  0.54753503  0.16374053    -0.54800
C1845       C  0.99823111  0.57562659  0.17100760     0.76700
O1846       O  0.91565134  0.49398761  0.30288449    -0.59400
O1847       O  0.95275449  0.99866007  0.33930506    -0.52500
C1848       C  0.92501435  0.49455323  0.33102650     0.73300
Zr1849     Zr  0.93653606  0.49680718  0.25073960     2.54700
O1850       O  0.89466213  0.53350212  0.25418265    -0.80000
O1851       O  0.89580520  0.96136740  0.25087011    -0.93400
Zr1852     Zr  0.99836773  0.56348983  0.25064891     2.64700
O1853       O  0.95472357  0.59825562  0.25310986    -0.98300
O1854       O  0.53511588  0.60648936  0.25093440    -0.80400
O1855       O  0.96692074  0.53074675  0.22083623    -0.83400
O1856       O  0.96686614  0.53073641  0.28058383    -2.18500
O1857       O  0.49930087  0.91370468  0.30192272    -0.67100
O1858       O  0.99918722  0.95212000  0.33949327    -0.51700
C1859       C  0.49999323  0.92300852  0.32997676     0.71600
O1860       O  0.58537736  0.99905866  0.19930917    -0.60000
O1861       O  0.54896670  0.49951640  0.16493451    -0.52000
C1862       C  0.57633787  0.99975903  0.17118422     0.73400
O1863       O  0.58515284  0.00080561  0.30271134    -0.71400
O1864       O  0.54742437  0.00155013  0.33881361    -0.50100
C1865       C  0.57576924  0.00145359  0.33079118     0.74800
O1866       O  0.50101664  0.91423375  0.19883119    -0.66800
O1867       O  0.50024974  0.95218609  0.16285162    -0.54000
C1868       C  0.50049928  0.92374468  0.17082999     0.73200
Zr1869     Zr  0.50071669  0.93535535  0.25051152     2.77500
O1870       O  0.54194137  0.89763229  0.25102783    -0.97500
O1871       O  0.96087049  0.89615193  0.24994981    -0.78300
Zr1872     Zr  0.56402859  0.99989091  0.25084498     2.70100
O1873       O  0.60012812  0.95731455  0.25221621    -0.79600
O1874       O  0.60151498  0.54218362  0.25069736    -0.98700
Zr1875     Zr  0.50055140  0.49996438  0.19248930     2.21500
Zr1876     Zr  0.00010916  0.99975105  0.31060755     2.11100
O1877       O  0.53280137  0.96713563  0.28074345    -2.47400
O1878       O  0.53308559  0.96710091  0.22046056    -0.79400
O1879       O  0.96744656  0.96742139  0.28098252    -0.71600
O1880       O  0.53223182  0.53329867  0.22231488    -2.32500
O1881       O  0.96766795  0.96762935  0.22154503    -2.28700
O1882       O  0.53151943  0.53331938  0.28202798    -0.73300
H1883       H  0.95398037  0.54281149  0.29400843     0.78700
H1884       H  0.54480552  0.54609706  0.20929756     0.79700
H1885       H  0.54544837  0.95464566  0.29399396     0.82000
H1886       H  0.95516020  0.95500369  0.20835552     0.79600
H1887       H  0.55318386  0.59845662  0.26208959     0.42600
H1888       H  0.59780281  0.55443888  0.26952299     0.41600
H1889       H  0.59474888  0.94457724  0.23412765     0.41300
H1890       H  0.55224746  0.90044686  0.27111634     0.39200
H1891       H  0.94225065  0.90688591  0.24266820     0.42300
H1892       H  0.90142812  0.94723422  0.23394101     0.37100
H1893       H  0.90477091  0.55337876  0.25861310     0.43200
H1894       H  0.94700799  0.59656117  0.27445290     0.39600
H1895       H  0.53138104  0.87757555  0.25282967     0.44600
H1896       H  0.87734717  0.97219264  0.24330128     0.43300
H1897       H  0.96387639  0.61904386  0.25206389     0.43400
H1898       H  0.62132443  0.53178586  0.25447962     0.43800
O1899       O  0.99611093  0.69781744  0.08609128    -0.75100
O1900       O  0.49947637  0.66113382  0.04815913    -0.54000
C1901       C  0.99716707  0.66977890  0.07679588     0.78600
O1902       O  0.91530818  0.80230865  0.99729092    -0.59700
O1903       O  0.95308959  0.83828975  0.99911801    -0.52700
C1904       C  0.92478651  0.83034892  0.99800775     0.70700
O1905       O  0.91436459  0.69825857  0.99710746    -0.74200
O1906       O  0.95218082  0.66224596  0.99889117    -0.54800
C1907       C  0.92382441  0.67020139  0.99775162     0.76700
O1908       O  0.99661159  0.80122475  0.08640399    -0.59400
O1909       O  0.99838280  0.83755031  0.04884438    -0.52500
C1910       C  0.99742048  0.82931531  0.07722432     0.73300
Zr1911     Zr  0.99680842  0.74956460  0.06507657     2.54700
O1912       O  0.95512463  0.75041830  0.10227762    -0.80000
O1913       O  0.53497443  0.74856338  0.10655355    -0.93400
Zr1914     Zr  0.93567701  0.75008139  0.99793245     2.64700
O1915       O  0.89439022  0.74957293  0.03564576    -0.98300
O1916       O  0.89543954  0.74913885  0.46474062    -0.80400
O1917       O  0.96556992  0.71975215  0.03196742    -0.83700
O1918       O  0.96571482  0.77968962  0.03225577    -2.18500
O1919       O  0.58614843  0.80087995  0.50103836    -0.67100
O1920       O  0.54773705  0.83754300  0.00424455    -0.51700
C1921       C  0.57679133  0.82895785  0.50104077     0.71600
O1922       O  0.50369171  0.69734286  0.41564573    -0.60000
O1923       O  0.50024756  0.66132613  0.45361447    -0.52000
C1924       C  0.50228038  0.66938332  0.42525084     0.73400
O1925       O  0.50012914  0.80124560  0.41534820    -0.71400
O1926       O  0.99916455  0.83672542  0.45335500    -0.50100
C1927       C  0.50018841  0.82929143  0.42484039     0.74800
O1928       O  0.58587903  0.69804039  0.00250667    -0.66800
O1929       O  0.54798114  0.66215123  0.00081128    -0.54000
C1930       C  0.57564831  0.66930396  0.50017059     0.73200
Zr1931     Zr  0.56445784  0.74960655  0.00356433     2.77500
O1932       O  0.60783348  0.75025877  0.46747989    -0.97500
O1933       O  0.60243240  0.74730815  0.04456891    -0.78300
Zr1934     Zr  0.50175570  0.74940587  0.43640692     2.70100
O1935       O  0.54345862  0.75122935  0.39930773    -0.79600
O1936       O  0.95682584  0.74840172  0.39965285    -0.98700
Zr1937     Zr  0.49997985  0.69043009  0.00084115     2.21500
Zr1938     Zr  0.00001979  0.80890743  0.00115520     2.11100
O1939       O  0.53358894  0.77918674  0.46885365    -2.47400
O1940       O  0.53356714  0.71948231  0.46881851    -0.79400
O1941       O  0.53165319  0.77924299  0.03531279    -0.71600
O1942       O  0.96697446  0.71940352  0.46886533    -2.32500
O1943       O  0.53149837  0.71966578  0.03479276    -2.28700
O1944       O  0.96702465  0.77910103  0.46923012    -0.73300
H1945       H  0.95267079  0.79290669  0.04444311     0.78700
H1946       H  0.95422088  0.70623234  0.45642950     0.79700
H1947       H  0.54637973  0.79228676  0.45636362     0.82000
H1948       H  0.54365705  0.70639190  0.04779784     0.79600
H1949       H  0.87715041  0.75644880  0.47603527     0.42600
H1950       H  0.96660177  0.75332648  0.37970895     0.41600
H1951       H  0.55847773  0.73599687  0.40695861     0.41300
H1952       H  0.62551388  0.74402652  0.48030257     0.39200
H1953       H  0.59779544  0.76517053  0.05788631     0.42300
H1954       H  0.54750806  0.72997894  0.10278435     0.37100
H1955       H  0.93709632  0.74287957  0.09072401     0.43200
H1956       H  0.89946664  0.76630857  0.05021215     0.39600
H1957       H  0.60447504  0.73271757  0.45336964     0.44600
H1958       H  0.52294346  0.74365481  0.12521423     0.43300
H1959       H  0.87626290  0.75720907  0.02430354     0.43400
H1960       H  0.95096174  0.72650205  0.39785869     0.43800
O1961       O  0.80161074  0.58488874  0.99908155    -0.75100
O1962       O  0.83787940  0.54733709  0.99987378    -0.54000
C1963       C  0.82963090  0.57574827  0.99930038     0.78600
O1964       O  0.69885829  0.99896879  0.08681099    -0.59700
O1965       O  0.66324954  0.50056972  0.05098703    -0.52700
C1966       C  0.67140842  0.50106080  0.07938024     0.70700
O1967       O  0.80228312  0.99918289  0.08612632    -0.74200
O1968       O  0.83834886  0.99883788  0.04827400    -0.54800
C1969       C  0.83096905  0.50392688  0.07716675     0.76700
O1970       O  0.69874250  0.58483462  0.99919758    -0.59400
O1971       O  0.66253603  0.54744670  0.00244462    -0.52500
C1972       C  0.67075740  0.57579576  0.00069744     0.73300
Zr1973     Zr  0.75015105  0.56343793  0.99907197     2.54700
O1974       O  0.74865111  0.60659248  0.03452623    -0.80000
O1975       O  0.74977494  0.60227857  0.46127016    -0.93400
Zr1976     Zr  0.75042399  0.00044889  0.06521369     2.64700
O1977       O  0.75033167  0.54559118  0.10312791    -0.98300
O1978       O  0.74964324  0.96298647  0.10672462    -0.80400
O1979       O  0.78047741  0.53367645  0.03308709    -0.83700
O1980       O  0.72089235  0.53380601  0.03396927    -2.18500
O1981       O  0.69786901  0.50310248  0.41605008    -0.67100
O1982       O  0.66206729  0.50053558  0.45403526    -0.51700
C1983       C  0.67077765  0.00173474  0.42444115     0.71600
O1984       O  0.80213103  0.91429345  0.00022108    -0.60000
O1985       O  0.83818246  0.95206045  0.00092325    -0.52000
C1986       C  0.83006949  0.92313998  0.49989020     0.73400
O1987       O  0.69897842  0.91368242  0.00359814    -0.71400
O1988       O  0.66278193  0.95128391  0.00291842    -0.50100
C1989       C  0.67114505  0.92307731  0.49806104     0.74800
O1990       O  0.80146709  0.49523739  0.41547611    -0.66800
O1991       O  0.83798542  0.99871501  0.45349382    -0.54000
C1992       C  0.82989172  0.99906009  0.42503432     0.73200
Zr1993     Zr  0.74984202  0.49996010  0.43673479     2.77500
O1994       O  0.74941897  0.96177527  0.39710245    -0.97500
O1995       O  0.75487716  0.54162972  0.39973758    -0.78300
Zr1996     Zr  0.75039208  0.93509503  0.00182169     2.70100
O1997       O  0.75159424  0.89998999  0.45572564    -0.79600
O1998       O  0.75147307  0.89862901  0.04421902    -0.98700
Zr1999     Zr  0.80935505  0.99945100  0.00084721     2.21500
Zr2000     Zr  0.69121164  0.49969316  0.00305542     2.11100
O2001       O  0.72066874  0.96795070  0.46742138    -2.47400
O2002       O  0.78028397  0.96783912  0.46744839    -0.79400
O2003       O  0.72026456  0.53255793  0.46880846    -0.71600
O2004       O  0.78010816  0.96716411  0.03404066    -2.32500
O2005       O  0.77993646  0.53213476  0.46866240    -2.28700
O2006       O  0.72066065  0.96723175  0.03398917    -0.73300
H2007       H  0.70789809  0.54703959  0.04614429     0.78700
H2008       H  0.79318655  0.95454823  0.04673909     0.79700
H2009       H  0.70759445  0.95569036  0.45438956     0.82000
H2010       H  0.79320226  0.54463582  0.45606461     0.79600
H2011       H  0.76150284  0.94532832  0.09871277     0.42600
H2012       H  0.73634113  0.90674127  0.05910572     0.41600
H2013       H  0.75980221  0.91234945  0.43847900     0.41300
H2014       H  0.73042648  0.95000025  0.40102594     0.39200
H2015       H  0.74569875  0.53350551  0.38056857     0.42300
H2016       H  0.76430546  0.59454447  0.44561208     0.37100
H2017       H  0.75085910  0.59713589  0.05509876     0.43200
H2018       H  0.73330841  0.55890193  0.09617602     0.39600
H2019       H  0.74530033  0.97305278  0.37777263     0.44600
H2020       H  0.76009815  0.62037342  0.47038481     0.43300
H2021       H  0.74292968  0.53652483  0.12263924     0.43400
H2022       H  0.74183550  0.87979652  0.03586331     0.43800
C2023       C  0.87027689  0.84648676  0.00216060    -0.21100
C2024       C  0.90109883  0.85479918  0.99821274    -0.09100
C2025       C  0.90869475  0.88514894  0.49993430     0.29700
C2026       C  0.88564061  0.90756831  0.49964322    -0.21100
C2027       C  0.85449162  0.89922782  0.50038094    -0.09200
C2028       C  0.84729501  0.86859565  0.00306860     0.29700
F2029       F  0.81804535  0.85894475  0.00729755    -0.19700
H2030       H  0.86372838  0.82263765  0.00485417     0.18100
H2031       H  0.89227793  0.93152929  0.49872764     0.18100
F2032       F  0.93835347  0.89445245  0.49918584    -0.19700
C2033       C  0.88489205  0.59167636  0.99586040    -0.21100
C2034       C  0.85385012  0.59981020  0.99880257    -0.09100
C2035       C  0.84627632  0.63124374  0.00120407     0.29700
C2036       C  0.86908093  0.65365605  0.00039348    -0.21100
C2037       C  0.90012138  0.64561805  0.99755632    -0.09200
C2038       C  0.90780005  0.61420451  0.99522906     0.29700
F2039       F  0.93735235  0.60507789  0.99214018    -0.19700
H2040       H  0.89155938  0.56778119  0.99394207     0.18100
H2041       H  0.86224842  0.67749359  0.00245340     0.18100
F2042       F  0.81686041  0.64062373  0.00490453    -0.19700
C2043       C  0.63101434  0.84566931  0.49298374    -0.21100
C2044       C  0.60055453  0.85342667  0.50000801    -0.09100
C2045       C  0.59260811  0.88532871  0.00874412     0.29700
C2046       C  0.61576698  0.90754792  0.00803256    -0.21100
C2047       C  0.64677957  0.89918978  0.49769674    -0.09200
C2048       C  0.65377827  0.86813604  0.49151849     0.29700
F2049       F  0.68254280  0.85926736  0.48366999    -0.19700
H2050       H  0.63733236  0.82207493  0.48820211     0.18100
H2051       H  0.60935419  0.93152883  0.00975321     0.18100
F2052       F  0.56315962  0.89485521  0.01157633    -0.19700
C2053       C  0.63021013  0.65311751  0.49458366    -0.21100
C2054       C  0.59952366  0.64496155  0.49993838    -0.09100
C2055       C  0.59248514  0.61411467  0.00216289     0.29700
C2056       C  0.61544169  0.59165403  0.00193719    -0.21100
C2057       C  0.64656056  0.59987425  0.00051337    -0.09200
C2058       C  0.65417879  0.63136549  0.99912125     0.29700
F2059       F  0.68376588  0.64090995  0.99814405    -0.19700
H2060       H  0.63646306  0.67676477  0.49000884     0.18100
H2061       H  0.60873320  0.56772517  0.00305601     0.18100
F2062       F  0.56286153  0.60490196  0.00391486    -0.19700
C2063       C  0.88533445  0.99919980  0.40965307    -0.21100
C2064       C  0.85425080  0.99817616  0.40120640    -0.09100
C2065       C  0.84700759  0.49082475  0.36951377     0.29700
C2066       C  0.87016999  0.49032939  0.34737330    -0.21100
C2067       C  0.90117621  0.49323094  0.35563291    -0.09200
C2068       C  0.90839994  0.99882562  0.38730735     0.29700
F2069       F  0.93800365  0.00020068  0.39672568    -0.19700
H2070       H  0.89191408  0.00053100  0.43363506     0.18100
H2071       H  0.86355335  0.48817242  0.32346809     0.18100
F2072       F  0.81756562  0.48876661  0.35975126    -0.19700
C2073       C  0.61527432  0.00119385  0.40907106    -0.21100
C2074       C  0.64636334  0.00205225  0.40056491    -0.09100
C2075       C  0.65208616  0.49860779  0.37068537     0.29700
C2076       C  0.62892276  0.49907176  0.34875402    -0.21100
C2077       C  0.59960111  0.00195064  0.35523485    -0.09200
C2078       C  0.59212411  0.00101810  0.38677682     0.29700
F2079       F  0.56255548  0.99952799  0.39625652    -0.19700
H2080       H  0.60874295  0.00042288  0.43308458     0.18100
H2081       H  0.63518718  0.49506832  0.32498691     0.18100
F2082       F  0.68110448  0.49325528  0.36092390    -0.19700
C2083       C  0.59254451  0.99719099  0.11580970    -0.21100
C2084       C  0.60042521  0.99994576  0.14703775    -0.09100
C2085       C  0.63163189  0.00303696  0.15489178     0.29700
C2086       C  0.65490323  0.49639963  0.13420637    -0.21100
C2087       C  0.64700994  0.50069723  0.10317324    -0.09200
C2088       C  0.61584033  0.50438059  0.09549515     0.29700
F2089       F  0.60688945  0.50926721  0.06600319    -0.19700
H2090       H  0.56881858  0.99491820  0.10894503     0.18100
H2091       H  0.67858207  0.49341654  0.14097181     0.18100
F2092       F  0.64069358  0.00665905  0.18455078    -0.19700
C2093       C  0.88593614  0.49771301  0.09280664    -0.21100
C2094       C  0.85556894  0.50502460  0.10070098    -0.09100
C2095       C  0.84792735  0.98802880  0.13075681     0.29700
C2096       C  0.87069474  0.98837628  0.15330897    -0.21100
C2097       C  0.90186820  0.50339171  0.14621488    -0.09200
C2098       C  0.90894618  0.49713380  0.11518526     0.29700
F2099       F  0.93790096  0.48999075  0.10637344    -0.19700
H2100       H  0.89190773  0.49202530  0.06930773     0.18100
H2101       H  0.86468510  0.98136509  0.17643203     0.18100
F2102       F  0.81945140  0.97834022  0.13869701    -0.19700
C2103       C  0.99671714  0.61484181  0.40780979    -0.21100
C2104       C  0.50249410  0.64491817  0.40177926    -0.09100
C2105       C  0.51842211  0.64891299  0.37395133     0.29700
C2106       C  0.51762726  0.62609468  0.35144301    -0.21100
C2107       C  0.00251132  0.59938590  0.35429228    -0.09200
C2108       C  0.99681800  0.59191442  0.38528180     0.29700
F2109       F  0.99107211  0.56252609  0.39395864    -0.19700
H2110       H  0.99175815  0.60840039  0.43133946     0.18100
H2111       H  0.53029901  0.62956859  0.33030902     0.18100
F2112       F  0.53517574  0.67465148  0.36865098    -0.19700
C2113       C  0.50530313  0.84570106  0.37012704    -0.21100
C2114       C  0.50007468  0.85369732  0.40100135    -0.09100
C2115       C  0.99837839  0.88496374  0.40946285     0.29700
C2116       C  0.99898951  0.90761799  0.38663182    -0.21100
C2117       C  0.50027336  0.89911739  0.35434676    -0.09200
C2118       C  0.50538892  0.86793316  0.34707744     0.29700
F2119       F  0.51087834  0.85866589  0.31776419    -0.19700
H2120       H  0.50953116  0.82204683  0.36362199     0.18100
H2121       H  0.00078280  0.93145189  0.39358176     0.18100
F2122       F  0.99984358  0.89387272  0.43935155    -0.19700
C2123       C  0.49610656  0.88437993  0.09278526    -0.21100
C2124       C  0.99751009  0.85367657  0.10116119    -0.09100
C2125       C  0.00012725  0.84609060  0.13256765     0.29700
C2126       C  0.00083306  0.86906295  0.15486145    -0.21100
C2127       C  0.49978823  0.89993695  0.14644834    -0.09200
C2128       C  0.49708121  0.90754495  0.11506251     0.29700
F2129       F  0.49536702  0.93725923  0.10573116    -0.19700
H2130       H  0.49401928  0.89094867  0.06885342     0.18100
H2131       H  0.00310616  0.86219979  0.17869026     0.18100
F2132       F  0.00240228  0.81645891  0.14204797    -0.19700
C2133       C  0.00470525  0.62992684  0.15400568    -0.21100
C2134       C  0.99762601  0.59933835  0.14655735    -0.09100
C2135       C  0.49324854  0.59168794  0.11576987     0.29700
C2136       C  0.49360350  0.61437005  0.09297396    -0.21100
C2137       C  0.99721772  0.64556020  0.10079719    -0.09200
C2138       C  0.00430727  0.65280883  0.13161532     0.29700
F2139       F  0.01121847  0.68196314  0.14032613    -0.19700
H2140       H  0.01072948  0.63628957  0.17732569     0.18100
H2141       H  0.48944351  0.60768689  0.06933889     0.18100
F2142       F  0.48751780  0.56224187  0.10725640    -0.19700
O2143       O  0.91505774  0.50186435  0.69884942    -0.75100
O2144       O  0.95287182  0.50017796  0.66283423    -0.54000
C2145       C  0.92455496  0.50145658  0.67080455     0.78600
O2146       O  0.00338694  0.58497251  0.80234890    -0.59700
O2147       O  0.00065122  0.54723540  0.83854113    -0.52700
C2148       C  0.00264735  0.57558581  0.83047171     0.70700
O2149       O  0.99858220  0.58423863  0.69797441    -0.74200
O2150       O  0.50160202  0.54746170  0.66337273    -0.54800
C2151       C  0.99928933  0.57453905  0.66993976     0.76700
O2152       O  0.91447602  0.49875763  0.80207466    -0.59400
O2153       O  0.95255747  0.99627890  0.83865872    -0.52500
C2154       C  0.92371993  0.49898357  0.83019725     0.73300
Zr2155     Zr  0.93638239  0.50014514  0.75062547     2.54700
O2156       O  0.89893592  0.54149925  0.75190537    -0.80000
O2157       O  0.90088449  0.95267870  0.75030946    -0.93400
Zr2158     Zr  0.00075587  0.56391028  0.75034414     2.64700
O2159       O  0.96126901  0.60348849  0.75076231    -0.98300
O2160       O  0.53970405  0.60322045  0.74964851    -0.80400
O2161       O  0.96814442  0.53230417  0.72044599    -0.83400
O2162       O  0.96796267  0.53269634  0.78053510    -2.18500
O2163       O  0.50316585  0.91422489  0.80240485    -0.67100
O2164       O  0.00177989  0.95122981  0.83845187    -0.51700
C2165       C  0.50299915  0.92341161  0.83054464     0.71600
O2166       O  0.58566706  0.00024131  0.69879389    -0.60000
O2167       O  0.54954281  0.49913076  0.66423439    -0.52000
C2168       C  0.57633987  0.99930301  0.67074933     0.73400
O2169       O  0.58647656  0.00217271  0.80238717    -0.71400
O2170       O  0.54882685  0.00034154  0.83857568    -0.50100
C2171       C  0.57709732  0.00133790  0.83047802     0.74800
O2172       O  0.50329293  0.91510363  0.69859764    -0.66800
O2173       O  0.49981874  0.95287706  0.66261084    -0.54000
C2174       C  0.50153267  0.92451659  0.67059216     0.73200
Zr2175     Zr  0.50312524  0.93553565  0.75064206     2.77500
O2176       O  0.54497658  0.89857427  0.74898495    -0.97500
O2177       O  0.96948913  0.89101791  0.74947034    -0.78300
Zr2178     Zr  0.56492814  0.00175347  0.75064659     2.70100
O2179       O  0.60436146  0.96223481  0.75159800    -0.79600
O2180       O  0.60217436  0.54223054  0.75061561    -0.98700
Zr2181     Zr  0.50137564  0.50001243  0.69211611     2.21500
Zr2182     Zr  0.00033642  0.99909840  0.81023199     2.11100
O2183       O  0.53477929  0.96793239  0.78057924    -2.47400
O2184       O  0.53437955  0.96826618  0.72061038    -0.79400
O2185       O  0.96980942  0.96463646  0.78081412    -0.71600
O2186       O  0.53338313  0.53296984  0.72180737    -2.32500
O2187       O  0.96953605  0.96479299  0.72118758    -2.28700
O2188       O  0.53306165  0.53311538  0.78140573    -0.73300
H2189       H  0.95545979  0.54545512  0.79369419     0.78700
H2190       H  0.54591494  0.54574227  0.70872946     0.79700
H2191       H  0.54782563  0.95563268  0.79361771     0.82000
H2192       H  0.95753966  0.95163879  0.70802956     0.79600
H2193       H  0.55223226  0.59942908  0.76824160     0.42600
H2194       H  0.59618228  0.55574738  0.76791863     0.41600
H2195       H  0.59667516  0.94608118  0.73752761     0.41300
H2196       H  0.55853372  0.90436320  0.76628609     0.39200
H2197       H  0.94971436  0.89926991  0.75693074     0.42300
H2198       H  0.90486195  0.94211273  0.73054031     0.37100
H2199       H  0.90737150  0.55733172  0.73792734     0.43200
H2200       H  0.95346144  0.60387588  0.77213298     0.39600
H2201       H  0.53558747  0.87890024  0.75544938     0.44600
H2202       H  0.88052793  0.96231513  0.74762485     0.43300
H2203       H  0.97255996  0.62307745  0.74845070     0.43400
H2204       H  0.62160521  0.53264946  0.75736515     0.43800
O2205       O  0.99994398  0.69723233  0.58625974    -0.75100
O2206       O  0.49920637  0.66201187  0.54886314    -0.54000
C2207       C  0.00022337  0.66926991  0.57661412     0.78600
O2208       O  0.91520364  0.80103806  0.50136051    -0.59700
O2209       O  0.95308109  0.83695576  0.50098453    -0.52700
C2210       C  0.92470795  0.82906889  0.50105470     0.70700
O2211       O  0.91524550  0.69747945  0.50263787    -0.74200
O2212       O  0.95313648  0.66154416  0.50153925    -0.54800
C2213       C  0.92476806  0.66946186  0.50219078     0.76700
O2214       O  0.00557833  0.80088975  0.58620524    -0.59400
O2215       O  0.00297477  0.83696523  0.54837592    -0.52500
C2216       C  0.00510993  0.82891789  0.57672831     0.73300
Zr2217     Zr  0.00212561  0.74905146  0.56530337     2.54700
O2218       O  0.96338851  0.75074530  0.60561126    -0.80000
O2219       O  0.53974468  0.74694549  0.60372715    -0.93400
Zr2220     Zr  0.93639746  0.74921946  0.50274180     2.64700
O2221       O  0.90064194  0.74869790  0.54573986    -0.98300
O2222       O  0.89925380  0.75085522  0.95556774    -0.80400
O2223       O  0.96890777  0.71913896  0.53427255    -0.83700
O2224       O  0.96865265  0.77916907  0.53477293    -2.18500
O2225       O  0.58539147  0.80144256  0.00613240    -0.67100
O2226       O  0.54844046  0.83703252  0.50152146    -0.51700
C2227       C  0.57604482  0.82950648  0.00577795     0.71600
O2228       O  0.50477654  0.69807318  0.91580112    -0.60000
O2229       O  0.50120690  0.66178123  0.95331430    -0.52000
C2230       C  0.50336167  0.67000933  0.92501462     0.73400
O2231       O  0.50219996  0.80163088  0.91567031    -0.71400
O2232       O  0.00189720  0.83790015  0.95367471    -0.50100
C2233       C  0.50158929  0.82961334  0.92526626     0.74800
O2234       O  0.58501267  0.69735368  0.50066297    -0.66800
O2235       O  0.54731826  0.66127060  0.50006799    -0.54000
C2236       C  0.57638661  0.67005804  0.00143467     0.73200
Zr2237     Zr  0.56431356  0.74934404  0.50242638     2.77500
O2238       O  0.60431346  0.75067167  0.96432028    -0.97500
O2239       O  0.59833489  0.74812256  0.54667206    -0.78300
Zr2240     Zr  0.50298003  0.74985969  0.93676233     2.70100
O2241       O  0.54662462  0.75065167  0.90200267    -0.79600
O2242       O  0.96480404  0.74890422  0.89602025    -0.98700
Zr2243     Zr  0.50008832  0.69046497  0.50092486     2.21500
Zr2244     Zr  0.00057539  0.80815867  0.50098852     2.11100
O2245       O  0.53433646  0.77965420  0.96968704    -2.47400
O2246       O  0.53398553  0.71978223  0.96970664    -0.79400
O2247       O  0.53252890  0.77966836  0.53453600    -0.71600
O2248       O  0.96878840  0.72030579  0.96673610    -2.32500
O2249       O  0.53219502  0.71946274  0.53440897    -2.28700
O2250       O  0.96870554  0.78008871  0.96676246    -0.73300
H2251       H  0.95655664  0.79251147  0.54772556     0.78700
H2252       H  0.95684260  0.70724272  0.95344766     0.79700
H2253       H  0.54724755  0.79294856  0.95769049     0.82000
H2254       H  0.54445389  0.70616212  0.54722858     0.79600
H2255       H  0.91012127  0.76166546  0.93878585     0.42600
H2256       H  0.95217959  0.76749748  0.89937476     0.41600
H2257       H  0.53748969  0.75233083  0.88123180     0.41300
H2258       H  0.60247042  0.77108359  0.95444238     0.39200
H2259       H  0.61626246  0.73605682  0.53971149     0.42300
H2260       H  0.52904476  0.74933235  0.62366262     0.37100
H2261       H  0.94497993  0.74141366  0.59615847     0.43200
H2262       H  0.90485516  0.76790470  0.55719385     0.39600
H2263       H  0.62372093  0.75173587  0.97605093     0.44600
H2264       H  0.55142073  0.76628127  0.60119393     0.43300
H2265       H  0.88032053  0.75208605  0.53624606     0.43400
H2266       H  0.97652637  0.75336217  0.87704969     0.43800
O2267       O  0.80218923  0.58463120  0.50262594    -0.75100
O2268       O  0.83820079  0.54681322  0.50171338    -0.54000
C2269       C  0.83017726  0.57531180  0.50238704     0.78600
O2270       O  0.69850314  0.99793971  0.58653528    -0.59700
O2271       O  0.66308112  0.49942677  0.54948644    -0.52700
C2272       C  0.67120699  0.49864741  0.57790699     0.70700
O2273       O  0.80133927  0.99874453  0.58707555    -0.74200
O2274       O  0.83753897  0.99892845  0.54939188    -0.54800
C2275       C  0.82986242  0.50040330  0.57732755     0.76700
O2276       O  0.69896553  0.58547565  0.50097928    -0.59400
O2277       O  0.66286978  0.54775371  0.50149689    -0.52500
C2278       C  0.67098262  0.57618375  0.50104086     0.73300
Zr2279     Zr  0.75036917  0.56368336  0.50175858     2.54700
O2280       O  0.74860127  0.60248147  0.54208046    -0.80000
O2281       O  0.74837674  0.59821003  0.95534647    -0.93400
Zr2282     Zr  0.74998005  0.99814899  0.56512316     2.64700
O2283       O  0.75103522  0.53746807  0.60593365    -0.98300
O2284       O  0.74891461  0.95480746  0.60046201    -0.80400
O2285       O  0.78028041  0.53172333  0.53416364    -0.83700
O2286       O  0.72067395  0.53202064  0.53448741    -2.18500
O2287       O  0.69798402  0.49878519  0.91766823    -0.67100
O2288       O  0.66198293  0.49925401  0.95544751    -0.51700
C2289       C  0.67124625  0.99921514  0.92437893     0.71600
O2290       O  0.80206516  0.91388950  0.49898451    -0.60000
O2291       O  0.83815456  0.95158473  0.50065889    -0.52000
C2292       C  0.83008785  0.92366757  0.00040079     0.73400
O2293       O  0.69909807  0.91375158  0.49711249    -0.71400
O2294       O  0.66304008  0.95151489  0.49972423    -0.50100
C2295       C  0.67099836  0.92289825  0.00381048     0.74800
O2296       O  0.80070737  0.49692194  0.91524435    -0.66800
O2297       O  0.83807774  0.99736434  0.95319628    -0.54000
C2298       C  0.82990762  0.99600433  0.92479112     0.73200
Zr2299     Zr  0.74971722  0.49636893  0.93803630     2.77500
O2300       O  0.75136588  0.95818210  0.89789422    -0.97500
O2301       O  0.75021415  0.53459178  0.89709231    -0.78300
Zr2302     Zr  0.75046215  0.93538186  0.49909550     2.70100
O2303       O  0.74890104  0.89426869  0.96351515    -0.79600
O2304       O  0.75018535  0.89607645  0.53899864    -0.98700
Zr2305     Zr  0.80937567  0.99935071  0.50123201     2.21500
Zr2306     Zr  0.69116354  0.49978439  0.50147181     2.11100
O2307       O  0.72054925  0.96601714  0.96850395    -2.47400
O2308       O  0.78021494  0.96622132  0.96872391    -0.79400
O2309       O  0.71999328  0.53045061  0.96828717    -0.71600
O2310       O  0.77990400  0.96607883  0.53298294    -2.32500
O2311       O  0.77982049  0.53056752  0.96761982    -2.28700
O2312       O  0.72039335  0.96629096  0.53239266    -0.73300
H2313       H  0.70766120  0.54463456  0.54729579     0.78700
H2314       H  0.79287665  0.95315167  0.54547095     0.79700
H2315       H  0.70746289  0.95316209  0.95601366     0.82000
H2316       H  0.79276796  0.54270092  0.95435951     0.79600
H2317       H  0.73516999  0.93968489  0.59050788     0.42600
H2318       H  0.72932089  0.89676944  0.54786450     0.41600
H2319       H  0.74472300  0.90495674  0.94386248     0.41300
H2320       H  0.73069850  0.94888832  0.89853727     0.39200
H2321       H  0.73867771  0.52510706  0.87993971     0.42300
H2322       H  0.76795547  0.59489349  0.94438870     0.37100
H2323       H  0.75140501  0.59079433  0.56140751     0.43200
H2324       H  0.73115530  0.54823914  0.60411343     0.39600
H2325       H  0.75206345  0.96930805  0.87805191     0.44600
H2326       H  0.75035897  0.61892099  0.96457607     0.43300
H2327       H  0.74941135  0.52557728  0.62527785     0.43400
H2328       H  0.75098986  0.87635943  0.52765988     0.43800
C2329       C  0.86994090  0.84546919  0.50217765    -0.21100
C2330       C  0.90103328  0.85366045  0.50099358    -0.09100
C2331       C  0.90847299  0.88621583  0.99514795     0.29700
C2332       C  0.88536018  0.90847867  0.99605581    -0.21100
C2333       C  0.85450535  0.89998916  0.99992210    -0.09200
C2334       C  0.84700882  0.86773004  0.50184192     0.29700
F2335       F  0.81748714  0.85807140  0.50293863    -0.19700
H2336       H  0.86309727  0.82157600  0.50331079     0.18100
H2337       H  0.89168746  0.93240624  0.99347314     0.18100
F2338       F  0.93782748  0.89556856  0.99095645    -0.19700
C2339       C  0.88569946  0.59103290  0.50043586    -0.21100
C2340       C  0.85460280  0.59927918  0.50269691    -0.09100
C2341       C  0.84715577  0.63077723  0.50492740     0.29700
C2342       C  0.87006229  0.65306881  0.50467936    -0.21100
C2343       C  0.90109598  0.64491235  0.50236204    -0.09200
C2344       C  0.90871762  0.61348539  0.50020384     0.29700
F2345       F  0.93830445  0.60429194  0.49759306    -0.19700
H2346       H  0.89231458  0.56711793  0.49863823     0.18100
H2347       H  0.86325348  0.67694186  0.50642268     0.18100
F2348       F  0.81771824  0.64041489  0.50753289    -0.19700
C2349       C  0.63093153  0.84541383  0.00395529    -0.21100
C2350       C  0.59994703  0.85384470  0.00649037    -0.09100
C2351       C  0.59338909  0.88452612  0.50555903     0.29700
C2352       C  0.61627472  0.90702803  0.50447289    -0.21100
C2353       C  0.64670005  0.89903607  0.00504204    -0.09200
C2354       C  0.65399482  0.86752257  0.00312031     0.29700
F2355       F  0.68335693  0.85776562  0.99993953    -0.19700
H2356       H  0.63753006  0.82149307  0.00209148     0.18100
H2357       H  0.61007485  0.93062746  0.50935800     0.18100
F2358       F  0.56440126  0.89328834  0.51255998    -0.19700
C2359       C  0.63126928  0.65370637  0.99911334    -0.21100
C2360       C  0.60015313  0.64554956  0.00084311    -0.09100
C2361       C  0.59251972  0.61383669  0.50553624     0.29700
C2362       C  0.61579854  0.59170915  0.50594201    -0.21100
C2363       C  0.64650203  0.59994744  0.50059879    -0.09200
C2364       C  0.65338572  0.63106963  0.49480689     0.29700
F2365       F  0.68246004  0.64043716  0.48899841    -0.19700
H2366       H  0.63811877  0.67759865  0.99794536     0.18100
H2367       H  0.60970271  0.56804541  0.51062174     0.18100
F2368       F  0.56332499  0.60466813  0.51100628    -0.19700
C2369       C  0.88482225  0.00082918  0.90866680    -0.21100
C2370       C  0.85418302  0.99465448  0.90092696    -0.09100
C2371       C  0.84560883  0.49998596  0.86860708     0.29700
C2372       C  0.86864326  0.50013546  0.84631516    -0.21100
C2373       C  0.89976426  0.49897371  0.85460905    -0.09200
C2374       C  0.90781034  0.00021931  0.88627303     0.29700
F2375       F  0.93692476  0.00678631  0.89494285    -0.19700
H2376       H  0.89106060  0.00651932  0.93209727     0.18100
H2377       H  0.86189799  0.50114786  0.82236292     0.18100
F2378       F  0.81607059  0.50131117  0.85896319    -0.19700
C2379       C  0.61644420  0.99405765  0.90825183    -0.21100
C2380       C  0.64709904  0.99993130  0.90042910    -0.09100
C2381       C  0.65354178  0.49669004  0.87141321     0.29700
C2382       C  0.63081667  0.49695502  0.84891179    -0.21100
C2383       C  0.60073874  0.00127416  0.85497222    -0.09200
C2384       C  0.59343309  0.99490464  0.88592702     0.29700
F2385       F  0.56417302  0.98931984  0.89481324    -0.19700
H2386       H  0.61016946  0.98873331  0.93175040     0.18100
H2387       H  0.63773816  0.49437568  0.82513199     0.18100
F2388       F  0.68302842  0.49348540  0.86206418    -0.19700
C2389       C  0.59250335  0.00276949  0.61533819    -0.21100
C2390       C  0.60024051  0.99830987  0.64642235    -0.09100
C2391       C  0.63123876  0.99322570  0.65406968     0.29700
C2392       C  0.65420887  0.48932447  0.63189903    -0.21100
C2393       C  0.64693251  0.49827427  0.60171714    -0.09200
C2394       C  0.61662607  0.50709466  0.59499542     0.29700
F2395       F  0.60876457  0.51740067  0.56661607    -0.19700
H2396       H  0.56895675  0.00679261  0.60866314     0.18100
H2397       H  0.67726341  0.48231587  0.63782912     0.18100
F2398       F  0.64015427  0.98801318  0.68352158    -0.19700
C2399       C  0.88476317  0.49472584  0.59317140    -0.21100
C2400       C  0.85434396  0.50184942  0.60097023    -0.09100
C2401       C  0.84668157  0.00260122  0.63309984     0.29700
C2402       C  0.86967362  0.00162658  0.65533208    -0.21100
C2403       C  0.90095761  0.50241716  0.64625240    -0.09200
C2404       C  0.90787966  0.49506937  0.61544022     0.29700
F2405       F  0.93678183  0.48759426  0.60677002    -0.19700
H2406       H  0.89068619  0.48839894  0.56982516     0.18100
H2407       H  0.86326575  0.00531329  0.67911258     0.18100
F2408       F  0.81759802  0.00823555  0.64254015    -0.19700
C2409       C  0.00445166  0.61490657  0.90891080    -0.21100
C2410       C  0.50360446  0.64565277  0.90119773    -0.09100
C2411       C  0.50792307  0.65302922  0.86994645     0.29700
C2412       C  0.50689964  0.63016577  0.84760392    -0.21100
C2413       C  0.00410272  0.59937480  0.85499753    -0.09200
C2414       C  0.00384095  0.59175415  0.88655232     0.29700
F2415       F  0.00258475  0.56206101  0.89602791    -0.19700
H2416       H  0.00403496  0.60828309  0.93291515     0.18100
H2417       H  0.51046359  0.63678178  0.82386454     0.18100
F2418       F  0.51291813  0.68237524  0.86062234    -0.19700
C2419       C  0.50608306  0.84600544  0.87050378    -0.21100
C2420       C  0.50193787  0.85412194  0.90152130    -0.09100
C2421       C  0.01075559  0.88463929  0.90802535     0.29700
C2422       C  0.01032447  0.90688581  0.88483395    -0.21100
C2423       C  0.50301325  0.89956697  0.85492522    -0.09200
C2424       C  0.50663943  0.86825232  0.84751045     0.29700
F2425       F  0.51083521  0.85881992  0.81804172    -0.19700
H2426       H  0.50905045  0.82221769  0.86380202     0.18100
H2427       H  0.01741881  0.93007927  0.89041423     0.18100
F2428       F  0.02012110  0.89292299  0.93662063    -0.19700
C2429       C  0.49707158  0.88473732  0.59273189    -0.21100
C2430       C  0.00635779  0.85354246  0.60024983    -0.09100
C2431       C  0.01382787  0.84679933  0.63102087     0.29700
C2432       C  0.01278790  0.86970699  0.65337075    -0.21100
C2433       C  0.50130626  0.90066416  0.64625380    -0.09200
C2434       C  0.49740526  0.90801083  0.61492072     0.29700
F2435       F  0.49392776  0.93755382  0.60552675    -0.19700
H2436       H  0.49390560  0.89109043  0.56886339     0.18100
H2437       H  0.01869786  0.86361095  0.67677731     0.18100
F2438       F  0.02208271  0.81803397  0.63978759    -0.19700
C2439       C  0.98869673  0.62784388  0.65233223    -0.21100
C2440       C  0.99876866  0.59802997  0.64532575    -0.09100
C2441       C  0.50638764  0.59251176  0.61604434     0.29700
C2442       C  0.50543561  0.61542889  0.59351273    -0.21100
C2443       C  0.99915413  0.64464880  0.60008545    -0.09200
C2444       C  0.98904059  0.65093602  0.63019759     0.29700
F2445       F  0.97920171  0.67935950  0.63843674    -0.19700
H2446       H  0.98059332  0.63348110  0.67519223     0.18100
H2447       H  0.51225522  0.60962474  0.57027505     0.18100
F2448       F  0.51580892  0.56394223  0.60779260    -0.19700
loop_ 
_geom_bond_atom_site_label_1 
_geom_bond_atom_site_label_2 
_geom_bond_distance 
_geom_bond_site_symmetry_2 
_ccdc_geom_bond_type 
O1          Zr13   2.438   1_545  S
O1            C3   1.289       .  A
O2        Zr1263   2.423   1_545  S
O2            C3   1.286       .  A
C3          C261   1.485       .  S
O4          Zr16   2.444       .  S
O4            C6   1.289       .  A
O5         Zr652   2.430   1_545  S
O5            C6   1.288       .  A
C6          C271   1.489       .  S
O7          Zr16   2.451       .  S
O7            C9   1.291       .  A
O8          Zr39   2.413   1_655  S
O8         C1233   1.284       .  A
C9         O1232   1.285       .  A
C9          C298   1.488       .  S
O10         Zr13   2.446       .  S
O10          C12   1.290       .  A
O11         Zr40   2.415       .  S
O11         C624   1.284       .  A
C12         O623   1.286       .  A
C12         C231   1.489       .  S
Zr13         O14   2.434   1_565  S
Zr13        O627   2.435       .  S
Zr13         O19   2.371   1_565  S
Zr13         O20   2.372   1_565  S
Zr13        O655   2.365       .  S
Zr13        O657   2.370       .  S
O14          H57   0.990       .  S
O15        Zr625   2.436       .  S
O15          H56   0.990       .  S
O15          H60   0.990       .  S
Zr16         O17   2.437       .  S
Zr16       O1242   2.436       .  S
Zr16         O20   2.376       .  S
Zr16         O19   2.367       .  S
Zr16       O1268   2.370       .  S
Zr16       O1270   2.371       .  S
O17          H58   0.990       .  S
O17          H61   0.990       .  S
O18       Zr1240   2.434       .  S
O18          H51   0.989       .  S
O19       Zr1263   2.381   1_545  S
O20        Zr652   2.386   1_545  S
O20          H47   0.966       .  S
O21         Zr33   2.438       .  S
O21          C23   1.288       .  A
O22         Zr40   2.417       .  S
O22        C1247   1.286       .  A
C23        O1246   1.286       .  A
C23         C281   1.485       .  S
O24         Zr36   2.430       .  S
O24          C26   1.286       .  A
O25         Zr39   2.440       .  S
O25         C638   1.290   1_545  A
C26         O637   1.287       .  A
C26         C248   1.485       .  S
O27         Zr36   2.431       .  S
O27          C29   1.287       .  A
O28       Zr1264   2.419       .  S
O28          C29   1.285       .  A
C29         C241   1.483       .  S
O30         Zr33   2.428       .  S
O30          C32   1.287       .  A
O31        Zr651   2.418       .  S
O31          C32   1.285       .  A
C32         C291   1.481       .  S
Zr33         O34   2.436       .  S
Zr33       O1259   2.437   1_455  S
Zr33         O41   2.367       .  S
Zr33         O42   2.372       .  S
Zr33       O1269   2.372   1_455  S
Zr33       O1267   2.367   1_455  S
O34          H54   0.990       .  S
O34          H59   0.990       .  S
O35       Zr1257   2.435       .  S
O35          H55   0.990       .  S
Zr36         O37   2.434       .  S
Zr36        O650   2.435       .  S
Zr36         O42   2.369       .  S
Zr36         O41   2.368       .  S
Zr36        O658   2.367       .  S
Zr36        O656   2.367       .  S
O37          H53   0.990       .  S
O38        Zr648   2.430   1_545  S
O38          H52   0.990       .  S
O38          H62   0.990       .  S
Zr39       O1226   2.430   1_445  S
Zr39        O643   2.423   1_545  S
Zr39         O44   2.386       .  S
Zr39       O1243   2.384   1_455  S
Zr39        O654   2.379   1_545  S
Zr39       O1881   2.381   1_445  S
Zr40        O617   2.416       .  S
Zr40       O1252   2.417       .  S
Zr40         O43   2.379       .  S
Zr40        O632   2.383       .  S
Zr40       O1265   2.383       .  S
Zr40       O1882   2.380       .  S
O41       Zr1264   2.387       .  S
O41          H49   0.966       .  S
O42        Zr651   2.381       .  S
O43        Zr625   2.365       .  S
O43       Zr1257   2.368       .  S
O44       Zr1240   2.370       .  S
O44        Zr648   2.368   1_545  S
O44          H48   0.970       .  S
O45        Zr625   2.372       .  S
O45       Zr1257   2.363       .  S
O45       Zr1875   2.383       .  S
O45          H50   0.965       .  S
O46       Zr1240   2.371       .  S
O46        Zr648   2.367   1_545  S
O46       Zr1876   2.380   1_545  S
O63         Zr75   2.419       .  S
O63          C65   1.284       .  A
O64        Zr101   2.425       .  S
O64        C1289   1.287       .  A
C65        O1288   1.288       .  A
C65         C301   1.483       .  S
O66         Zr78   2.431       .  S
O66          C68   1.287       .  A
O67        Zr102   2.430       .  S
O67          C68   1.287   1_554  A
C68         C188   1.486       .  S
O69         Zr78   2.437       .  S
O69          C71   1.288       .  A
O70       Zr1325   2.426   1_556  S
O70          C71   1.287       .  A
C71         C201   1.489       .  S
O72         Zr75   2.429       .  S
O72          C74   1.286       .  A
O73        Zr102   2.417       .  S
O73          C74   1.286       .  A
C74         C288   1.481       .  S
Zr75         O76   2.435       .  S
Zr75       O1301   2.435       .  S
Zr75         O81   2.368       .  S
Zr75         O82   2.367       .  S
Zr75       O1329   2.365       .  S
Zr75       O1331   2.371       .  S
O76         H119   0.990       .  S
O77       Zr1299   2.435   1_455  S
O77         H118   0.990       .  S
O77         H122   0.990       .  S
Zr78         O79   2.434   1_556  S
Zr78        O386   2.434       .  S
Zr78         O82   2.368   1_556  S
Zr78         O81   2.366   1_556  S
Zr78        O412   2.369       .  S
Zr78        O414   2.370       .  S
O79         H120   0.990       .  S
O79         H123   0.990       .  S
O80        Zr384   2.433       .  S
O80         H113   0.990       .  S
O81       Zr1325   2.376       .  S
O82        Zr102   2.382       .  S
O82         H109   0.966       .  S
O83        Zr401   2.440       .  S
O83          C85   1.289       .  A
O84       Zr1326   2.426   1_455  S
O84         C391   1.287       .  A
C85         O390   1.287       .  A
C85         C208   1.490       .  S
O86         Zr98   2.439       .  S
O86          C88   1.289       .  A
O87        Zr407   2.417       .  S
O87          C88   1.286       .  A
C88         C268   1.480       .  S
O89         Zr98   2.439       .  S
O89          C91   1.288       .  A
O90        Zr408   2.422       .  S
O90        C1315   1.286       .  A
C91        O1314   1.286       .  A
C91         C278   1.486       .  S
O92         Zr95   2.450   1_556  S
O92         C400   1.291       .  A
O93        Zr101   2.417   1_455  S
O93         C400   1.285   1_554  A
C94         O398   1.289       .  A
C94         O399   1.285       .  A
C94         C218   1.486       .  S
Zr95        O389   2.444       .  S
Zr95         O97   2.432       .  S
Zr95        O402   2.433   1_554  S
Zr95        O107   2.367       .  S
Zr95        O105   2.371       .  S
Zr95        O409   2.370   1_554  S
Zr95        O410   2.367   1_554  S
O96        Zr401   2.435       .  S
O96         H116   0.990       .  S
O96         H121   0.990       .  S
O97         H117   0.990       .  S
Zr98         O99   2.435       .  S
Zr98       O1324   2.434   1_455  S
Zr98        O104   2.366       .  S
Zr98        O103   2.367       .  S
Zr98       O1332   2.367   1_455  S
Zr98       O1330   2.372   1_455  S
O99         H115   0.990       .  S
O100      Zr1322   2.436       .  S
O100        H114   0.990       .  S
O100        H124   0.990       .  S
Zr101      O1294   2.412       .  S
Zr101       O393   2.426   1_554  S
Zr101       O107   2.384   1_655  S
Zr101      O1305   2.383       .  S
Zr101       O410   2.380   1_654  S
Zr101      O1636   2.382   1_554  S
Zr102      O1308   2.423       .  S
Zr102       O396   2.423   1_554  S
Zr102      O1633   2.386   1_554  S
Zr102      O1329   2.384       .  S
Zr102       O414   2.380   1_554  S
O103       Zr401   2.371       .  S
O103      Zr1632   2.380   1_455  S
O103        H111   0.966       .  S
O104       Zr401   2.368       .  S
O104       Zr407   2.381       .  S
O105      Zr1299   2.363   1_455  S
O105      Zr1326   2.378   1_455  S
O106       Zr384   2.370       .  S
O106      Zr1322   2.368       .  S
O106      Zr1631   2.388       .  S
O106        H110   0.965       .  S
O107      Zr1299   2.369   1_455  S
O107        H112   0.967       .  S
O108       Zr384   2.372       .  S
O108      Zr1322   2.369       .  S
O108       Zr408   2.380       .  S
O125       Zr137   2.437       .  S
O125        C127   1.287       .  A
O126       Zr775   2.431   1_545  S
O126        C127   1.288   1_554  A
C127        C198   1.490       .  S
O128       Zr140   2.436       .  S
O128        C742   1.288       .  A
O129       Zr164   2.426   1_545  S
O129        C130   1.287       .  A
C130        O740   1.289       .  A
C130        C251   1.490       .  S
O131       Zr140   2.438       .  S
O131        C745   1.288       .  A
O132       Zr163   2.432       .  S
O132        C745   1.289       .  A
C133        O743   1.287       .  A
C133        O744   1.287       .  A
C133        C258   1.484       .  S
O134       Zr137   2.442       .  S
O134        C136   1.289       .  A
O135       Zr164   2.420   1_546  S
O135        C136   1.286       .  A
C136        C221   1.488       .  S
Zr137       O138   2.434   1_556  S
Zr137       O445   2.436       .  S
Zr137       O143   2.376   1_556  S
Zr137       O144   2.371   1_556  S
Zr137       O473   2.365       .  S
Zr137       O475   2.372       .  S
O138        H181   0.990       .  S
O139       Zr443   2.437       .  S
O139        H180   0.990       .  S
O139        H184   0.990       .  S
Zr140       O142   2.432       .  S
Zr140       O753   2.436       .  S
Zr140       O168   2.369       .  S
Zr140       O170   2.372       .  S
Zr140       O756   2.367       .  S
Zr140       O755   2.369       .  S
O141       Zr752   2.434       .  S
O141        H182   0.990       .  S
O141        H185   0.990       .  S
O142        H175   0.990       .  S
O143       Zr752   2.373       .  S
O143       Zr775   2.385   1_545  S
O144       Zr164   2.386   1_545  S
O144       Zr752   2.369       .  S
O144        H171   0.967       .  S
O145       Zr157   2.439       .  S
O145        C759   1.288       .  A
O146       Zr470   2.421   1_565  S
O146        C759   1.286       .  A
C147        O757   1.286       .  A
C147        O758   1.288       .  A
C147        C238   1.486       .  S
O148       Zr160   2.430       .  S
O148        C456   1.286   1_554  A
O149       Zr163   2.426       .  S
O149        C456   1.287   1_554  A
C150        O454   1.287       .  A
C150        O455   1.287       .  A
C150        C191   1.485       .  S
O151       Zr160   2.442       .  S
O151        C459   1.288       .  A
O152       Zr776   2.431       .  S
O152        C459   1.288       .  A
C153        O457   1.287       .  A
C153        O458   1.288       .  A
C153        C211   1.488       .  S
O154       Zr157   2.431       .  S
O154        C768   1.286       .  A
O155       Zr469   2.432       .  S
O155        C156   1.289       .  A
C156        O766   1.286       .  A
C156        C228   1.485       .  S
Zr157       O159   2.434   1_565  S
Zr157       O770   2.436       .  S
Zr157       O169   2.374   1_565  S
Zr157       O167   2.372   1_565  S
Zr157       O777   2.366       .  S
Zr157       O778   2.370       .  S
O158       Zr769   2.435       .  S
O158        H178   0.990       .  S
O158        H183   0.990       .  S
O159        H179   0.990       .  S
Zr160       O162   2.437       .  S
Zr160       O467   2.431   1_554  S
Zr160       O170   2.367       .  S
Zr160       O168   2.370       .  S
Zr160       O472   2.371   1_554  S
Zr160       O471   2.368   1_554  S
O161       Zr466   2.432       .  S
O161        H177   0.990       .  S
O162        H176   0.990       .  S
O162        H186   0.990       .  S
Zr163       O738   2.428       .  S
Zr163       O461   2.434   1_554  S
Zr163       O168   2.390       .  S
Zr163       O755   2.385       .  S
Zr163       O472   2.382   1_554  S
Zr163      O1087   2.387   1_554  S
Zr164       O452   2.420   1_554  S
Zr164       O764   2.426       .  S
Zr164      O1083   2.385   1_554  S
Zr164       O473   2.384   1_564  S
Zr164       O782   2.377       .  S
O165       Zr769   2.366       .  S
O165       Zr466   2.371       .  S
O165      Zr1082   2.379       .  S
O165        H173   0.965       .  S
O166       Zr769   2.365       .  S
O166       Zr466   2.368       .  S
O166       Zr469   2.376       .  S
O167       Zr443   2.371       .  S
O167       Zr470   2.385       .  S
O168        H172   0.968       .  S
O169       Zr443   2.371       .  S
O169      Zr1081   2.389   1_545  S
O169        H174   0.966       .  S
O170       Zr776   2.384       .  S
C187        C188   1.406   1_554  A
C187        C192   1.393       .  A
C187        H194   1.083       .  S
C188        C495   1.409       .  A
C189        C190   1.399       .  A
C189        C494   1.411       .  A
C189        F196   1.357       .  S
C190        C191   1.406       .  A
C190        H195   1.083       .  S
C191        C498   1.410       .  A
C192        C497   1.410   1_554  A
C192        F193   1.358       .  S
C197        C198   1.407   1_554  A
C197        C202   1.401       .  A
C197        H204   1.083       .  S
C198        C199   1.411       .  A
C199        C200   1.395       .  A
C199        F206   1.358       .  S
C200        C201   1.407       .  A
C200        H205   1.083       .  S
C201        C202   1.411   1_556  A
C202        F203   1.357       .  S
C207        C208   1.406       .  A
C207        C212   1.394       .  A
C207        H214   1.083       .  S
C208        C515   1.411       .  A
C209        C210   1.402       .  A
C209        C514   1.411       .  A
C209        F216   1.357       .  S
C210        C517   1.408       .  A
C210        H215   1.083       .  S
C211        C212   1.411       .  A
C211        C516   1.408       .  A
C212        F213   1.358       .  S
C217        C218   1.405       .  A
C217        C528   1.394       .  A
C217        H224   1.083       .  S
C218        C525   1.411       .  A
C219        C220   1.402       .  A
C219        C524   1.412   1_554  A
C219        F226   1.358       .  S
C220        C221   1.409   1_554  A
C220        H225   1.083       .  S
C221        C222   1.409       .  A
C222        C523   1.394       .  A
C222        F223   1.357       .  S
C227        C228   1.406       .  A
C227        C232   1.398       .  A
C227        H234   1.083       .  S
C228        C841   1.411       .  A
C229        C230   1.396       .  A
C229        C840   1.412       .  A
C229        F236   1.358       .  S
C230        C231   1.405       .  A
C230        H235   1.083       .  S
C231        C844   1.411   1_565  A
C232        C843   1.410       .  A
C232        F233   1.357       .  S
C237        C238   1.407       .  A
C237        C242   1.399       .  A
C237        H244   1.083       .  S
C238        C851   1.410       .  A
C239        C240   1.394       .  A
C239        C850   1.409       .  A
C239        F246   1.358       .  S
C240        C853   1.406       .  A
C240        H245   1.083       .  S
C241        C242   1.410       .  A
C241        C852   1.405       .  A
C242        F243   1.358       .  S
C247        C248   1.406       .  A
C247        C864   1.399       .  A
C247        H254   1.083       .  S
C248        C249   1.411       .  A
C249        C862   1.393       .  A
C249        F256   1.358       .  S
C250        C251   1.406       .  A
C250        C861   1.396       .  A
C250        H255   1.083       .  S
C251        C252   1.411   1_545  A
C252        C859   1.401       .  A
C252        F253   1.357       .  S
C257        C258   1.407       .  A
C257        C262   1.400       .  A
C257        H264   1.083       .  S
C258        C871   1.409   1_545  A
C259        C260   1.396       .  A
C259        C870   1.411       .  A
C259        F266   1.358       .  S
C260        C873   1.407       .  A
C260        H265   1.083       .  S
C261        C262   1.410       .  A
C261        C872   1.405   1_545  A
C262        F263   1.358       .  S
C267        C272   1.399       .  A
C267       C1492   1.405       .  A
C267        H274   1.083       .  S
C268        C269   1.407   1_455  A
C268       C1491   1.407       .  A
C269        C270   1.394       .  A
C269        F276   1.358       .  S
C270       C1495   1.405   1_655  A
C270        H275   1.083       .  S
C271        C272   1.411       .  A
C271       C1494   1.406       .  A
C272        F273   1.357       .  S
C277        C278   1.406   1_655  A
C277        C282   1.393       .  A
C277        H284   1.083       .  S
C278       C1503   1.410       .  A
C279        C280   1.397       .  A
C279       C1502   1.410       .  A
C279        F286   1.357       .  S
C280       C1505   1.405       .  A
C280        H285   1.083       .  S
C281        C282   1.409   1_455  A
C281       C1504   1.408       .  A
C282        F283   1.358       .  S
C287        C292   1.398       .  A
C287       C1512   1.408       .  A
C287        H294   1.083   1_455  S
C288        C289   1.409       .  A
C288       C1511   1.406       .  A
C289        C290   1.392       .  A
C289        F296   1.358       .  S
C290       C1515   1.406       .  A
C290        H295   1.083       .  S
C291        C292   1.409       .  A
C291       C1514   1.405       .  A
C292        F293   1.358   1_455  S
C297        C298   1.406       .  A
C297        C302   1.393       .  A
C297        H304   1.083       .  S
C298       C1523   1.412       .  A
C299        C300   1.398       .  A
C299       C1522   1.411       .  A
C299        F306   1.357   1_655  S
C300       C1525   1.405       .  A
C300        H305   1.083   1_655  S
C301        C302   1.411       .  A
C301       C1524   1.405       .  A
C302        F303   1.358       .  S
O307       Zr319   2.442   1_545  S
O307        C309   1.289       .  A
O308      Zr1569   2.422       .  S
O308        C309   1.286       .  A
C309        C567   1.488       .  S
O310       Zr322   2.429       .  S
O310        C312   1.287       .  A
O311       Zr958   2.421   1_545  S
O311        C312   1.286       .  A
C312        C577   1.484       .  S
O313       Zr322   2.436       .  S
O313        C315   1.289       .  A
O314       Zr345   2.415   1_645  S
O314       C1539   1.285       .  A
C315       O1538   1.284       .  A
C315        C604   1.484       .  S
O316       Zr319   2.439       .  S
O316        C318   1.288       .  A
O317       Zr346   2.423       .  S
O317        C930   1.286       .  A
C318        O929   1.286       .  A
C318        C537   1.486       .  S
Zr319       O320   2.433   1_565  S
Zr319       O933   2.435       .  S
Zr319       O325   2.371   1_565  S
Zr319       O326   2.368   1_565  S
Zr319       O961   2.369       .  S
Zr319       O963   2.370       .  S
O320        H363   0.990       .  S
O321       Zr931   2.436       .  S
O321        H362   0.990       .  S
O321        H366   0.990       .  S
Zr322       O323   2.436       .  S
Zr322      O1548   2.431       .  S
Zr322       O326   2.367       .  S
Zr322       O325   2.365       .  S
Zr322      O1574   2.369       .  S
Zr322      O1576   2.368       .  S
O323        H364   0.990       .  S
O323        H367   0.990       .  S
O324      Zr1546   2.435   1_455  S
O324        H357   0.990       .  S
O325      Zr1569   2.382       .  S
O326       Zr958   2.382   1_545  S
O326        H353   0.966       .  S
O327       Zr339   2.437       .  S
O327        C329   1.287       .  A
O328       Zr346   2.415       .  S
O328       C1553   1.285       .  A
C329       O1552   1.288       .  A
C329        C587   1.484       .  S
O330       Zr342   2.436       .  S
O330        C332   1.287       .  A
O331       Zr345   2.430       .  S
O331        C944   1.288       .  A
C332        O943   1.287       .  A
C332        C554   1.487       .  S
O333       Zr342   2.439       .  S
O333        C335   1.289       .  A
O334      Zr1570   2.428       .  S
O334        C335   1.287       .  A
C335        C547   1.487       .  S
O336       Zr339   2.429       .  S
O336        C338   1.287       .  A
O337       Zr957   2.417   1_655  S
O337        C338   1.285       .  A
C338        C597   1.480       .  S
Zr339       O340   2.438   1_655  S
Zr339      O1565   2.435       .  S
Zr339       O347   2.368   1_655  S
Zr339       O348   2.373   1_655  S
Zr339      O1575   2.369       .  S
Zr339      O1573   2.370       .  S
O340        H360   0.990       .  S
O340        H365   0.990       .  S
O341      Zr1563   2.437       .  S
O341        H361   0.990       .  S
Zr342       O343   2.432       .  S
Zr342       O956   2.434       .  S
Zr342       O348   2.373       .  S
Zr342       O347   2.369       .  S
Zr342       O964   2.365       .  S
Zr342       O962   2.369       .  S
O343        H359   0.990       .  S
O344       Zr954   2.436       .  S
O344        H358   0.990       .  S
O344        H368   0.990       .  S
Zr345      O1532   2.427   1_455  S
Zr345       O949   2.416       .  S
Zr345      O1549   2.378   1_465  S
Zr345       O960   2.377       .  S
Zr345       O350   2.387   1_565  S
Zr345      O2187   2.381   1_455  S
Zr346       O923   2.418       .  S
Zr346      O1558   2.426       .  S
Zr346       O938   2.386       .  S
Zr346      O1571   2.383       .  S
Zr346       O349   2.380       .  S
Zr346      O2188   2.380       .  S
O347      Zr1570   2.385       .  S
O347        H355   0.966       .  S
O348       Zr957   2.383       .  S
O349       Zr931   2.364       .  S
O349      Zr1563   2.369       .  S
O350      Zr1546   2.375   1_455  S
O350       Zr954   2.369       .  S
O350        H354   0.970       .  S
O351       Zr931   2.367       .  S
O351      Zr1563   2.369       .  S
O351      Zr2181   2.384       .  S
O351        H356   0.965       .  S
O352      Zr1546   2.373   1_455  S
O352       Zr954   2.369       .  S
O352      Zr2182   2.383   1_545  S
O369       Zr381   2.428       .  S
O369        C371   1.286       .  A
O370       Zr407   2.425   1_655  S
O370       C1595   1.287       .  A
C371       O1594   1.288       .  A
C371        C607   1.485       .  S
O372       Zr384   2.441       .  S
O372        C374   1.289       .  A
O373       Zr408   2.429       .  S
O373        C374   1.287       .  A
C374        C494   1.490       .  S
O375       Zr384   2.442       .  S
O375        C377   1.290       .  A
O376      Zr1631   2.421       .  S
O376        C377   1.286       .  A
C377        C507   1.487       .  S
O378       Zr381   2.430       .  S
O378        C380   1.286       .  A
O379       Zr408   2.423       .  S
O379        C380   1.287       .  A
C380        C594   1.480       .  S
Zr381       O382   2.436       .  S
Zr381      O1607   2.438       .  S
Zr381       O387   2.370       .  S
Zr381       O388   2.371       .  S
Zr381      O1635   2.366       .  S
Zr381      O1637   2.373       .  S
O382        H425   0.990       .  S
O383      Zr1605   2.434   1_455  S
O383        H424   0.990       .  S
O383        H428   0.990       .  S
Zr384       O385   2.436       .  S
Zr384       O388   2.372       .  S
Zr384       O387   2.367       .  S
O385        H426   0.990       .  S
O385        H429   0.990       .  S
O386        H419   0.990       .  S
O387      Zr1631   2.381       .  S
O388       Zr408   2.384       .  S
O388        H415   0.966       .  S
O389        C391   1.289       .  A
O390      Zr1632   2.430   1_455  S
C391        C514   1.492       .  S
O392       Zr404   2.439   1_455  S
O392        C394   1.288       .  A
O393        C394   1.287   1_655  A
C394        C574   1.479       .  S
O395       Zr404   2.439       .  S
O395        C397   1.289       .  A
O396       C1621   1.286       .  A
C397       O1620   1.286       .  A
C397        C584   1.483       .  S
O398       Zr401   2.437       .  S
O399       Zr407   2.417       .  S
C400        C524   1.489       .  S
Zr401       O403   2.434       .  S
Zr401       O413   2.371       .  S
Zr401       O411   2.366       .  S
O402        H422   0.990       .  S
O402        H427   0.990       .  S
O403        H423   0.990       .  S
Zr404       O405   2.436   1_655  S
Zr404      O1630   2.435       .  S
Zr404       O410   2.370   1_655  S
Zr404       O409   2.371   1_655  S
Zr404      O1638   2.370       .  S
Zr404      O1636   2.369       .  S
O405        H421   0.990       .  S
O406      Zr1628   2.437       .  S
O406        H420   0.990       .  S
O406        H430   0.990       .  S
Zr407      O1600   2.423   1_455  S
Zr407      O1611   2.377   1_455  S
Zr407      O1330   2.385   1_455  S
Zr407       O413   2.383       .  S
Zr408      O1614   2.421       .  S
Zr408      O1327   2.384       .  S
Zr408      O1635   2.380       .  S
O409      Zr1326   2.385   1_456  S
O409        H417   0.965       .  S
O411      Zr1605   2.368   1_455  S
O411      Zr1632   2.379   1_455  S
O412      Zr1628   2.368       .  S
O412      Zr1325   2.385   1_556  S
O412        H416   0.965       .  S
O413      Zr1605   2.367   1_455  S
O413        H418   0.966       .  S
O414      Zr1628   2.368       .  S
O431       Zr443   2.442       .  S
O431        C433   1.288       .  A
O432      Zr1081   2.431   1_545  S
O432        C433   1.288       .  A
C433        C504   1.490       .  S
O434       Zr446   2.441       .  S
O434       C1048   1.289       .  A
O435       Zr470   2.413   1_565  S
O435        C436   1.285       .  A
C436       O1046   1.291   1_565  A
C436        C557   1.481       .  S
O437       Zr446   2.444       .  S
O437       C1051   1.290       .  A
O438       Zr469   2.431       .  S
O438       C1051   1.289       .  A
C439       O1049   1.288       .  A
C439       O1050   1.287       .  A
C439        C564   1.489       .  S
O440       Zr443   2.438       .  S
O440        C442   1.287       .  A
O441       Zr470   2.434       .  S
O441        C442   1.289       .  A
C442        C527   1.490       .  S
Zr443       O444   2.434       .  S
Zr443       O449   2.372       .  S
Zr443       O450   2.372       .  S
O444        H487   0.990       .  S
O445        H486   0.990       .  S
O445        H490   0.990       .  S
Zr446      O1059   2.435       .  S
Zr446       O448   2.433       .  S
Zr446      O1062   2.366       .  S
Zr446      O1061   2.371       .  S
Zr446       O474   2.371       .  S
Zr446       O476   2.371       .  S
O447      Zr1058   2.435       .  S
O447        H488   0.990       .  S
O447        H491   0.990       .  S
O448        H481   0.990       .  S
O449      Zr1058   2.370       .  S
O449      Zr1081   2.385   1_545  S
O450      Zr1058   2.368       .  S
O450       Zr470   2.389       .  S
O450        H477   0.966       .  S
O451       Zr463   2.438   1_545  S
O451       C1065   1.288   1_545  A
O452       C1065   1.286       .  A
C453       O1063   1.288       .  A
C453       O1064   1.286       .  A
C453        C544   1.486       .  S
O454       Zr466   2.432       .  S
O455       Zr469   2.422       .  S
C456        C497   1.485       .  S
O457       Zr466   2.436       .  S
O458      Zr1082   2.428       .  S
C459        C517   1.493       .  S
O460       Zr463   2.446       .  S
O460       C1074   1.289       .  A
O461        C462   1.289       .  A
C462       O1072   1.288       .  A
C462        C534   1.491       .  S
Zr463      O1076   2.435       .  S
Zr463       O465   2.434   1_565  S
Zr463      O1083   2.370       .  S
Zr463      O1084   2.363       .  S
Zr463       O475   2.371   1_565  S
Zr463       O473   2.373   1_565  S
O464      Zr1075   2.435       .  S
O464        H484   0.990       .  S
O464        H489   0.990       .  S
O465        H485   0.990       .  S
Zr466       O468   2.436       .  S
Zr466       O476   2.363       .  S
Zr466       O474   2.364       .  S
O467        H483   0.990       .  S
O468        H482   0.990       .  S
O468        H492   0.990       .  S
Zr469      O1044   2.428       .  S
Zr469      O1061   2.382       .  S
Zr469       O474   2.385       .  S
Zr469       O781   2.382       .  S
Zr470      O1070   2.435   1_545  S
Zr470       O777   2.383   1_545  S
Zr470      O1088   2.387   1_545  S
O471      Zr1075   2.371       .  S
O471       Zr776   2.385   1_556  S
O471        H479   0.957       .  S
O472      Zr1075   2.371       .  S
O474        H478   0.965       .  S
O475       Zr775   2.388   1_546  S
O475        H480   0.965       .  S
O476      Zr1082   2.382       .  S
C493        C494   1.407       .  A
C493        C498   1.396       .  A
C493        H500   1.083       .  S
C495        C496   1.399       .  A
C495        F502   1.357       .  S
C496        C497   1.407       .  A
C496        H501   1.083       .  S
C498        F499   1.358       .  S
C503        C504   1.408       .  A
C503        C508   1.402       .  A
C503        H510   1.083       .  S
C504        C505   1.411       .  A
C505        C506   1.395       .  A
C505        F512   1.357       .  S
C506        C507   1.405       .  A
C506        H511   1.083       .  S
C507        C508   1.411       .  A
C508        F509   1.358       .  S
C513        C514   1.407       .  A
C513        C518   1.397       .  A
C513        H520   1.083       .  S
C515        C516   1.401       .  A
C515        F522   1.357       .  S
C516        H521   1.083       .  S
C517        C518   1.411       .  A
C518        F519   1.358       .  S
C523        C524   1.405       .  A
C523        H530   1.083       .  S
C525        C526   1.401       .  A
C525        F532   1.358       .  S
C526        C527   1.407       .  A
C526        H531   1.083       .  S
C527        C528   1.412       .  A
C528        F529   1.357       .  S
C533        C534   1.408       .  A
C533        C538   1.401       .  A
C533        H540   1.083       .  S
C534       C1147   1.411       .  A
C535       C1146   1.409       .  A
C535        C536   1.394       .  A
C535        F542   1.358       .  S
C536        C537   1.406       .  A
C536        H541   1.083       .  S
C537       C1150   1.410   1_565  A
C538       C1149   1.411       .  A
C538        F539   1.357       .  S
C543        C544   1.407       .  A
C543        C548   1.401       .  A
C543        H550   1.083       .  S
C544       C1157   1.409       .  A
C545       C1156   1.410   1_565  A
C545        C546   1.395       .  A
C545        F552   1.358       .  S
C546       C1159   1.407   1_565  A
C546        H551   1.083       .  S
C547       C1158   1.406       .  A
C547        C548   1.410       .  A
C548        F549   1.357       .  S
C553        C554   1.407       .  A
C553       C1170   1.400       .  A
C553        H560   1.083       .  S
C554        C555   1.410       .  A
C555       C1168   1.393       .  A
C555        F562   1.358       .  S
C556       C1167   1.395       .  A
C556        C557   1.403       .  A
C556        H561   1.083       .  S
C557        C558   1.410   1_565  A
C558       C1165   1.402       .  A
C558        F559   1.358       .  S
C563        C564   1.407       .  A
C563        C568   1.400       .  A
C563        H570   1.083   1_545  S
C564       C1177   1.411       .  A
C565       C1176   1.410       .  A
C565        C566   1.396       .  A
C565        F572   1.358       .  S
C566       C1179   1.407       .  A
C566        H571   1.083       .  S
C567       C1178   1.405       .  A
C567        C568   1.411       .  A
C568        F569   1.358   1_545  S
C573       C1798   1.408       .  A
C573        C578   1.399       .  A
C573        H580   1.083       .  S
C574       C1797   1.406   1_455  A
C574        C575   1.407       .  A
C575        C576   1.395       .  A
C575        F582   1.358       .  S
C576       C1801   1.404       .  A
C576        H581   1.083       .  S
C577       C1800   1.406       .  A
C577        C578   1.409       .  A
C578        F579   1.358       .  S
C583        C584   1.405   1_455  A
C583        C588   1.394       .  A
C583        H590   1.083       .  S
C584       C1809   1.410       .  A
C585       C1808   1.410       .  A
C585        C586   1.401       .  A
C585        F592   1.357       .  S
C586       C1811   1.407       .  A
C586        H591   1.083       .  S
C587       C1810   1.406       .  A
C587        C588   1.409   1_655  A
C588        F589   1.358       .  S
C593       C1818   1.406       .  A
C593        C598   1.395       .  A
C593        H600   1.083       .  S
C594       C1817   1.406       .  A
C594        C595   1.410       .  A
C595        C596   1.391       .  A
C595        F602   1.358       .  S
C596       C1821   1.403       .  A
C596        H601   1.083       .  S
C597       C1820   1.406   1_655  A
C597        C598   1.409       .  A
C598        F599   1.357       .  S
C603        C604   1.405       .  A
C603        C608   1.392       .  A
C603        H610   1.083       .  S
C604       C1829   1.411       .  A
C605       C1828   1.410   1_455  A
C605        C606   1.398       .  A
C605        F612   1.357       .  S
C606       C1831   1.406   1_455  A
C606        H611   1.083       .  S
C607       C1830   1.407       .  A
C607        C608   1.411       .  A
C608        F609   1.358       .  S
O613       Zr625   2.432       .  S
O613        C615   1.288       .  A
O614      Zr1875   2.434       .  S
O614        C615   1.289       .  A
C615        C873   1.489       .  S
O616       Zr628   2.440       .  S
O616        C618   1.288       .  A
O617        C618   1.285       .  A
C618        C883   1.473       .  S
O619       Zr628   2.445       .  S
O619        C621   1.290       .  A
O620       Zr651   2.424   1_655  S
O620       C1845   1.286       .  A
C621       O1844   1.286       .  A
C621        C910   1.486       .  S
O622       Zr625   2.434       .  S
O622        C624   1.288       .  A
O623       Zr652   2.422       .  S
C624        C843   1.484       .  S
Zr625       O626   2.432       .  S
Zr625       O631   2.367       .  S
Zr625       O632   2.364       .  S
O626        H669   0.990       .  S
O627        H668   0.990       .  S
O627        H672   0.990       .  S
Zr628       O629   2.435       .  S
Zr628      O1854   2.433       .  S
Zr628       O632   2.370       .  S
Zr628       O631   2.364       .  S
Zr628      O1880   2.370       .  S
Zr628      O1882   2.373       .  S
O629        H670   0.990       .  S
O629        H673   0.990       .  S
O630      Zr1852   2.435   1_455  S
O630        H663   0.990       .  S
O631      Zr1875   2.377       .  S
O632        H659   0.966       .  S
O633       Zr645   2.433   1_655  S
O633        C635   1.286       .  A
O634       Zr652   2.431       .  S
O634       C1859   1.288       .  A
C635       O1858   1.287       .  A
C635        C893   1.486       .  S
O636       Zr648   2.427       .  S
O636        C638   1.285       .  A
O637       Zr651   2.423       .  S
C638        C860   1.490   1_565  S
O639       Zr648   2.435   1_545  S
O639        C641   1.288       .  A
O640      Zr1876   2.427       .  S
O640        C641   1.287   1_565  A
C641        C853   1.486   1_545  S
O642       Zr645   2.437   1_655  S
O642        C644   1.289       .  A
O643        C644   1.286   1_455  A
C644        C903   1.486       .  S
Zr645       O646   2.435       .  S
Zr645      O1871   2.434   1_455  S
Zr645       O653   2.367       .  S
Zr645       O654   2.366       .  S
Zr645      O1881   2.366   1_455  S
Zr645      O1879   2.369   1_455  S
O646        H666   0.990       .  S
O646        H671   0.990       .  S
O647      Zr1869   2.437       .  S
O647        H667   0.990       .  S
Zr648       O649   2.434       .  S
Zr648       O654   2.371       .  S
Zr648       O653   2.368       .  S
O649        H665   0.990       .  S
O650        H664   0.990       .  S
O650        H674   0.990       .  S
Zr651      O1838   2.415   1_455  S
Zr651      O1855   2.380   1_455  S
Zr651       O656   2.380       .  S
Zr651      O1269   2.389   1_455  S
Zr652      O1864   2.424   1_565  S
Zr652      O1877   2.384       .  S
Zr652       O655   2.381       .  S
Zr652      O1270   2.382   1_565  S
O653      Zr1876   2.383       .  S
O653        H661   0.966       .  S
O655      Zr1869   2.371       .  S
O656      Zr1852   2.367   1_455  S
O656        H660   0.966       .  S
O657      Zr1869   2.369       .  S
O657      Zr1263   2.385       .  S
O657        H662   0.964       .  S
O658      Zr1852   2.373   1_455  S
O658      Zr1264   2.381       .  S
O675       Zr687   2.427       .  S
O675        C677   1.285       .  A
O676       Zr713   2.430       .  S
O676       C1901   1.288       .  A
C677       O1900   1.286       .  A
C677        C913   1.482       .  S
O678       Zr690   2.437       .  S
O678        C680   1.289       .  A
O679       Zr714   2.421   1_556  S
O679        C680   1.286       .  A
C680        C800   1.487       .  S
O681       Zr690   2.435       .  S
O681        C683   1.287       .  A
O682      Zr1937   2.434   1_556  S
O682        C683   1.288       .  A
C683        C813   1.488       .  S
O684       Zr687   2.429       .  S
O684        C686   1.286       .  A
O685       Zr714   2.417       .  S
O685        C686   1.285       .  A
C686        C900   1.482       .  S
Zr687       O688   2.434       .  S
Zr687      O1913   2.435       .  S
Zr687       O693   2.370       .  S
Zr687       O694   2.364       .  S
Zr687      O1941   2.371       .  S
Zr687      O1943   2.368       .  S
O688        H731   0.990       .  S
O689      Zr1911   2.434   1_455  S
O689        H730   0.990       .  S
O689        H734   0.990       .  S
Zr690       O691   2.435   1_556  S
Zr690       O998   2.433       .  S
Zr690       O694   2.368   1_556  S
Zr690       O693   2.373   1_556  S
Zr690      O1024   2.368       .  S
Zr690      O1026   2.369       .  S
O691        H732   0.990       .  S
O691        H735   0.990       .  S
O692       Zr996   2.435       .  S
O692        H725   0.990       .  S
O693      Zr1937   2.385       .  S
O694       Zr714   2.386       .  S
O694        H721   0.968       .  S
O695      Zr1013   2.439       .  S
O695        C697   1.289       .  A
O696      Zr1938   2.418       .  S
O696       C1003   1.285       .  A
C697       O1002   1.287       .  A
C697        C820   1.489       .  S
O698       Zr710   2.430   1_455  S
O698        C700   1.285       .  A
O699      Zr1019   2.428       .  S
O699        C700   1.288       .  A
C700        C880   1.485       .  S
O701       Zr710   2.432       .  S
O701        C703   1.287       .  A
O702      Zr1020   2.422       .  S
O702       C1927   1.286       .  A
C703       O1926   1.285       .  A
C703        C890   1.484       .  S
O704       Zr707   2.443       .  S
O704       C1012   1.289       .  A
O705       Zr713   2.428   1_455  S
O705       C1012   1.287       .  A
C706       O1010   1.287       .  A
C706       O1011   1.287       .  A
C706        C830   1.486       .  S
Zr707      O1001   2.444       .  S
Zr707      O1014   2.437   1_554  S
Zr707       O709   2.436       .  S
Zr707      O1021   2.372   1_554  S
Zr707      O1022   2.371   1_554  S
Zr707       O719   2.371       .  S
Zr707       O717   2.370       .  S
O708      Zr1013   2.435       .  S
O708        H728   0.990       .  S
O708        H733   0.990       .  S
O709        H729   0.990       .  S
Zr710       O711   2.432   1_655  S
Zr710      O1936   2.435       .  S
Zr710       O716   2.369   1_655  S
Zr710       O715   2.367   1_655  S
Zr710      O1944   2.367       .  S
Zr710      O1942   2.366       .  S
O711        H727   0.990       .  S
O712      Zr1934   2.437       .  S
O712        H726   0.990       .  S
O712        H736   0.990       .  S
Zr713      O1906   2.427   1_554  S
Zr713      O1005   2.425   1_654  S
Zr713      O1917   2.386       .  S
Zr713      O1022   2.383   1_654  S
Zr713      O2248   2.386   1_554  S
Zr713       O719   2.386   1_655  S
Zr714      O1920   2.428       .  S
Zr714      O1008   2.422   1_554  S
Zr714      O2245   2.383   1_554  S
Zr714      O1941   2.384       .  S
Zr714      O1026   2.382   1_554  S
O715      Zr1013   2.367       .  S
O715      Zr2244   2.379       .  S
O715        H723   0.966       .  S
O716      Zr1013   2.368       .  S
O716      Zr1019   2.377       .  S
O717      Zr1911   2.368   1_455  S
O717      Zr1938   2.381       .  S
O718       Zr996   2.366       .  S
O718      Zr1934   2.367       .  S
O718      Zr2243   2.386       .  S
O718        H722   0.965       .  S
O719      Zr1911   2.372   1_455  S
O719        H724   0.967       .  S
O720       Zr996   2.368       .  S
O720      Zr1934   2.370       .  S
O720      Zr1020   2.381       .  S
O737       Zr749   2.431   1_554  S
O737        C739   1.286       .  A
O738        C739   1.288       .  A
C739        C810   1.485   1_554  S
O740       Zr752   2.439       .  S
O741       Zr776   2.413       .  S
O741        C742   1.284       .  A
C742        C863   1.483       .  S
O743       Zr752   2.434       .  S
O744       Zr775   2.423   1_545  S
C745        C870   1.490       .  S
O746       Zr749   2.438       .  S
O746        C748   1.287       .  A
O747       Zr776   2.431       .  S
O747        C748   1.288   1_554  A
C748        C833   1.491       .  S
Zr749       O750   2.437   1_556  S
Zr749      O1057   2.434       .  S
Zr749       O755   2.371   1_556  S
Zr749       O756   2.366   1_556  S
Zr749      O1085   2.367       .  S
Zr749      O1087   2.371       .  S
O750        H793   0.990       .  S
O751      Zr1055   2.434       .  S
O751        H792   0.990       .  S
O751        H796   0.990       .  S
Zr752       O754   2.432   1_545  S
Zr752       O780   2.368   1_545  S
Zr752       O782   2.368   1_545  S
O753        H794   0.990       .  S
O753        H797   0.990       .  S
O754        H787   0.990       .  S
O756       Zr776   2.385       .  S
O756        H783   0.958       .  S
O757       Zr769   2.431       .  S
O758      Zr1082   2.428       .  S
C759        C850   1.487       .  S
O760       Zr772   2.439       .  S
O760       C1068   1.288       .  A
O761       Zr775   2.433       .  S
O761       C1068   1.289       .  A
C762       O1066   1.287       .  A
C762       O1067   1.288       .  A
C762        C803   1.489       .  S
O763       Zr772   2.445       .  S
O763       C1071   1.289       .  A
O764       C1071   1.287       .  A
C765       O1069   1.286       .  A
C765       O1070   1.289       .  A
C765        C823   1.489       .  S
O766       Zr769   2.425       .  S
O767      Zr1081   2.436       .  S
O767        C768   1.289       .  A
C768        C840   1.489       .  S
Zr769       O771   2.436       .  S
Zr769       O781   2.371       .  S
Zr769       O779   2.366       .  S
O770        H790   0.990       .  S
O770        H795   0.990       .  S
O771        H791   0.990       .  S
Zr772      O1079   2.433   1_554  S
Zr772       O774   2.433       .  S
Zr772      O1084   2.371   1_554  S
Zr772      O1083   2.367   1_554  S
Zr772       O782   2.367       .  S
Zr772       O780   2.368       .  S
O773      Zr1078   2.433       .  S
O773        H789   0.990       .  S
O774        H788   0.990       .  S
O774        H798   0.990       .  S
Zr775      O1073   2.420   1_554  S
Zr775      O1084   2.381   1_554  S
Zr775       O780   2.383       .  S
Zr776      O1064   2.421   1_554  S
Zr776      O1085   2.382   1_554  S
O777      Zr1078   2.371       .  S
O777        H785   0.965       .  S
O778      Zr1078   2.372       .  S
O778      Zr1081   2.382       .  S
O779      Zr1055   2.369       .  S
O779      Zr1082   2.375       .  S
O780        H784   0.966       .  S
O781      Zr1055   2.364       .  S
O781        H786   0.965       .  S
C799        C800   1.405   1_554  A
C799        C804   1.394       .  A
C799        H806   1.083       .  S
C800       C1107   1.411       .  A
C801       C1106   1.410       .  A
C801        C802   1.400       .  A
C801        F808   1.357       .  S
C802        C803   1.407       .  A
C802        H807   1.083       .  S
C803       C1110   1.411       .  A
C804       C1109   1.411       .  A
C804        F805   1.357       .  S
C809        C810   1.406       .  A
C809        C814   1.399       .  A
C809        H816   1.083       .  S
C810        C811   1.411   1_556  A
C811        C812   1.395       .  A
C811        F818   1.358       .  S
C812        C813   1.407   1_554  A
C812        H817   1.083       .  S
C813        C814   1.409       .  A
C814        F815   1.357       .  S
C819        C820   1.406       .  A
C819        C824   1.395       .  A
C819        H826   1.083       .  S
C820       C1127   1.411       .  A
C821       C1126   1.411       .  A
C821        C822   1.403       .  A
C821        F828   1.358       .  S
C822       C1129   1.409       .  A
C822        H827   1.083       .  S
C823       C1128   1.407       .  A
C823        C824   1.412       .  A
C824        F825   1.358       .  S
C829        C830   1.407       .  A
C829       C1140   1.393       .  A
C829        H836   1.083       .  S
C830       C1137   1.410       .  A
C831       C1136   1.411   1_554  A
C831        C832   1.402       .  A
C831        F838   1.357       .  S
C832        C833   1.407   1_554  A
C832        H837   1.083       .  S
C833        C834   1.412       .  A
C834       C1135   1.396       .  A
C834        F835   1.358       .  S
C839        C840   1.406   1_545  A
C839        C844   1.401       .  A
C839        H846   1.083       .  S
C841        C842   1.392       .  A
C841        F848   1.358       .  S
C842        C843   1.405       .  A
C842        H847   1.083       .  S
C844        F845   1.357       .  S
C849        C850   1.408   1_545  A
C849        C854   1.400       .  A
C849        H856   1.083       .  S
C851        C852   1.392       .  A
C851        F858   1.358       .  S
C852        H857   1.083       .  S
C853        C854   1.410   1_565  A
C854        F855   1.357       .  S
C859        C860   1.406   1_565  A
C859        H866   1.083       .  S
C860        C861   1.413       .  A
C861        F868   1.358       .  S
C862        C863   1.405       .  A
C862        H867   1.083       .  S
C863        C864   1.410       .  A
C864        F865   1.357       .  S
C869        C870   1.407       .  A
C869        C874   1.401       .  A
C869        H876   1.083       .  S
C871        C872   1.393       .  A
C871        F878   1.358       .  S
C872        H877   1.083       .  S
C873        C874   1.410       .  A
C874        F875   1.357       .  S
C879       C2104   1.405       .  A
C879        C884   1.398       .  A
C879        H886   1.083       .  S
C880       C2103   1.406   1_455  A
C880        C881   1.412       .  A
C881        C882   1.395       .  A
C881        F888   1.358       .  S
C882       C2107   1.406       .  A
C882        H887   1.083       .  S
C883       C2106   1.403       .  A
C883        C884   1.406       .  A
C884        F885   1.358       .  S
C889        C890   1.405       .  A
C889        C894   1.393       .  A
C889        H896   1.083       .  S
C890       C2115   1.410       .  A
C891       C2114   1.410       .  A
C891        C892   1.399       .  A
C891        F898   1.357       .  S
C892       C2117   1.406       .  A
C892        H897   1.083       .  S
C893       C2116   1.407       .  A
C893        C894   1.411       .  A
C894        F895   1.358       .  S
C899       C2124   1.408       .  A
C899        C904   1.400       .  A
C899        H906   1.083       .  S
C900       C2123   1.407       .  A
C900        C901   1.410       .  A
C901        C902   1.391       .  A
C901        F908   1.358       .  S
C902       C2127   1.405       .  A
C902        H907   1.083       .  S
C903       C2126   1.405   1_655  A
C903        C904   1.411       .  A
C904        F905   1.358       .  S
C909        C910   1.405       .  A
C909        C914   1.394       .  A
C909        H916   1.083       .  S
C910       C2135   1.412       .  A
C911       C2134   1.409       .  A
C911        C912   1.400       .  A
C911        F918   1.357       .  S
C912       C2137   1.406       .  A
C912        H917   1.083       .  S
C913       C2136   1.405       .  A
C913        C914   1.410       .  A
C914        F915   1.358       .  S
O919       Zr931   2.440       .  S
O919        C921   1.289       .  A
O920      Zr2181   2.435       .  S
O920        C921   1.288       .  A
C921       C1179   1.490       .  S
O922       Zr934   2.434       .  S
O922        C924   1.287       .  A
O923        C924   1.285       .  A
C924       C1189   1.482       .  S
O925       Zr934   2.438       .  S
O925        C927   1.289       .  A
O926       Zr957   2.414       .  S
O926       C2151   1.284   1_455  A
C927       O2150   1.284       .  A
C927       C1216   1.483       .  S
O928       Zr931   2.442       .  S
O928        C930   1.289       .  A
O929       Zr958   2.424       .  S
C930       C1149   1.489       .  S
Zr931       O932   2.435       .  S
Zr931       O937   2.374       .  S
Zr931       O938   2.373       .  S
O932        H975   0.990       .  S
O933        H974   0.990       .  S
O933        H978   0.990       .  S
Zr934       O935   2.436       .  S
Zr934      O2160   2.435       .  S
Zr934       O938   2.372       .  S
Zr934       O937   2.369       .  S
Zr934      O2186   2.368       .  S
Zr934      O2188   2.374       .  S
O935        H976   0.990       .  S
O935        H979   0.990       .  S
O936      Zr2158   2.435       .  S
O936        H969   0.990       .  S
O937      Zr2181   2.381       .  S
O938        H965   0.966       .  S
O939       Zr951   2.434       .  S
O939        C941   1.287       .  A
O940       Zr958   2.417       .  S
O940       C2165   1.285       .  A
C941       O2164   1.286       .  A
C941       C1199   1.480       .  S
O942       Zr954   2.445   1_565  S
O942        C944   1.289       .  A
O943       Zr957   2.426       .  S
C944       C1166   1.486       .  S
O945       Zr954   2.444       .  S
O945        C947   1.289       .  A
O946      Zr2182   2.428   1_545  S
O946        C947   1.287       .  A
C947       C1159   1.490       .  S
O948       Zr951   2.441       .  S
O948        C950   1.289       .  A
O949        C950   1.285       .  A
C950       C1209   1.483       .  S
Zr951       O952   2.435       .  S
Zr951      O2177   2.434   1_455  S
Zr951       O959   2.368       .  S
Zr951       O960   2.364       .  S
Zr951      O2187   2.365   1_455  S
Zr951      O2185   2.373   1_455  S
O952        H972   0.990       .  S
O952        H977   0.990       .  S
O953      Zr2175   2.432       .  S
O953        H973   0.990       .  S
Zr954       O955   2.431   1_545  S
Zr954       O960   2.371   1_545  S
Zr954       O959   2.371   1_545  S
O955        H971   0.990       .  S
O956        H970   0.990       .  S
O956        H980   0.990       .  S
Zr957      O2144   2.422   1_455  S
Zr957      O2161   2.381   1_455  S
Zr957       O962   2.385       .  S
Zr957      O1575   2.381   1_455  S
Zr958      O2170   2.416   1_565  S
Zr958      O2183   2.384       .  S
Zr958       O961   2.382       .  S
Zr958      O1576   2.379   1_565  S
O959      Zr2182   2.386       .  S
O959        H967   0.966       .  S
O961      Zr2175   2.372       .  S
O962      Zr2158   2.367       .  S
O962        H966   0.966       .  S
O963      Zr2175   2.369       .  S
O963      Zr1569   2.387   1_565  S
O963        H968   0.964       .  S
O964      Zr2158   2.368       .  S
O964      Zr1570   2.380       .  S
O981       Zr993   2.432       .  S
O981        C983   1.287       .  A
O982      Zr1019   2.421       .  S
O982       C2207   1.286       .  A
C983       O2206   1.287       .  A
C983       C1219   1.483       .  S
O984       Zr996   2.438       .  S
O984        C986   1.288       .  A
O985      Zr1020   2.431       .  S
O985        C986   1.288       .  A
C986       C1106   1.491       .  S
O987       Zr996   2.441       .  S
O987        C989   1.289       .  A
O988      Zr2243   2.419       .  S
O988        C989   1.285       .  A
C989       C1119   1.486       .  S
O990       Zr993   2.431       .  S
O990        C992   1.286       .  A
O991      Zr1020   2.425       .  S
O991        C992   1.287       .  A
C992       C1206   1.484       .  S
Zr993       O994   2.435       .  S
Zr993      O2219   2.437       .  S
Zr993       O999   2.374       .  S
Zr993      O1000   2.368       .  S
Zr993      O2247   2.371       .  S
Zr993      O2249   2.367       .  S
O994       H1037   0.990       .  S
O995      Zr2217   2.436       .  S
O995       H1036   0.990       .  S
O995       H1040   0.990       .  S
Zr996       O997   2.433       .  S
Zr996      O1000   2.372       .  S
Zr996       O999   2.372       .  S
O997       H1038   0.990       .  S
O997       H1041   0.990       .  S
O998       H1031   0.989       .  S
O999      Zr2243   2.383       .  S
O1000     Zr1020   2.385       .  S
O1000      H1027   0.966       .  S
O1001      C1003   1.289       .  A
O1002     Zr2244   2.427       .  S
C1003      C1126   1.488       .  S
O1004     Zr1016   2.432       .  S
O1004      C1006   1.286       .  A
O1005      C1006   1.287       .  A
C1006      C1186   1.487       .  S
O1007     Zr1016   2.431       .  S
O1007      C1009   1.287       .  A
O1008      C2233   1.286       .  A
C1009      O2232   1.286       .  A
C1009      C1196   1.479       .  S
O1010     Zr1013   2.429       .  S
O1011     Zr1019   2.427       .  S
C1012      C1136   1.490   1_554  S
Zr1013     O1015   2.435       .  S
Zr1013     O1025   2.371       .  S
Zr1013     O1023   2.368       .  S
O1014      H1034   0.990       .  S
O1014      H1039   0.991       .  S
O1015      H1035   0.990       .  S
Zr1016     O1017   2.433       .  S
Zr1016     O2242   2.434   1_455  S
Zr1016     O1022   2.367       .  S
Zr1016     O1021   2.369       .  S
Zr1016     O2250   2.371   1_455  S
Zr1016     O2248   2.367   1_455  S
O1017      H1033   0.990       .  S
O1018     Zr2240   2.438       .  S
O1018      H1032   0.990       .  S
O1018      H1042   0.990       .  S
Zr1019     O2212   2.424   1_455  S
Zr1019     O2223   2.382   1_455  S
Zr1019     O1942   2.386   1_455  S
Zr1019     O1025   2.384       .  S
Zr1020     O2226   2.429       .  S
Zr1020     O1939   2.387       .  S
Zr1020     O2247   2.383       .  S
O1021     Zr1938   2.387   1_556  S
O1021      H1029   0.963       .  S
O1023     Zr2217   2.369       .  S
O1023     Zr2244   2.379       .  S
O1024     Zr2240   2.371       .  S
O1024     Zr1937   2.387   1_556  S
O1024      H1028   0.964       .  S
O1025     Zr2217   2.369       .  S
O1025      H1030   0.966       .  S
O1026     Zr2240   2.369       .  S
O1043     Zr1055   2.435       .  S
O1043      C1045   1.287       .  A
O1044      C1045   1.288       .  A
C1045      C1116   1.487       .  S
O1046     Zr1058   2.448       .  S
O1047     Zr1082   2.413       .  S
O1047      C1048   1.285       .  A
C1048      C1169   1.485       .  S
O1049     Zr1058   2.440       .  S
O1050     Zr1081   2.424   1_545  S
C1051      C1176   1.491       .  S
O1052     Zr1055   2.421       .  S
O1052      C1054   1.285       .  A
O1053     Zr1082   2.427       .  S
O1053      C1054   1.288       .  A
C1054      C1139   1.483       .  S
Zr1055     O1056   2.436       .  S
Zr1055     O1061   2.369       .  S
Zr1055     O1062   2.372       .  S
O1056      H1099   0.990       .  S
O1057      H1098   0.990       .  S
O1057      H1102   0.990       .  S
Zr1058     O1060   2.437   1_545  S
Zr1058     O1086   2.371   1_545  S
Zr1058     O1088   2.372   1_545  S
O1059      H1100   0.990       .  S
O1059      H1103   0.990       .  S
O1060      H1093   0.990       .  S
O1062     Zr1082   2.386       .  S
O1062      H1089   0.967       .  S
O1063     Zr1075   2.441       .  S
C1065      C1156   1.487   1_565  S
O1066     Zr1078   2.433       .  S
O1067     Zr1081   2.429       .  S
C1068      C1109   1.491       .  S
O1069     Zr1078   2.431       .  S
C1071      C1129   1.492       .  S
O1072     Zr1075   2.440       .  S
O1073      C1074   1.286       .  A
C1074      C1146   1.487       .  S
Zr1075     O1077   2.434       .  S
Zr1075     O1087   2.370       .  S
Zr1075     O1085   2.367       .  S
O1076      H1096   0.990       .  S
O1076      H1101   0.990       .  S
O1077      H1097   0.990       .  S
Zr1078     O1080   2.434       .  S
Zr1078     O1088   2.367       .  S
Zr1078     O1086   2.365       .  S
O1079      H1095   0.990       .  S
O1080      H1094   0.990       .  S
O1080      H1104   0.990       .  S
Zr1081     O1086   2.390       .  S
O1083      H1091   0.967       .  S
O1086      H1090   0.966       .  S
O1087      H1092   0.974       .  S
C1105      C1106   1.408       .  A
C1105      C1110   1.396       .  A
C1105      H1112   1.083       .  S
C1107      C1108   1.402       .  A
C1107      F1114   1.358       .  S
C1108      C1109   1.409   1_556  A
C1108      H1113   1.083       .  S
C1110      F1111   1.358       .  S
C1115      C1116   1.407       .  A
C1115      C1120   1.401       .  A
C1115      H1122   1.083       .  S
C1116      C1117   1.410       .  A
C1117      C1118   1.393       .  A
C1117      F1124   1.357       .  S
C1118      C1119   1.405       .  A
C1118      H1123   1.083       .  S
C1119      C1120   1.411       .  A
C1120      F1121   1.358       .  S
C1125      C1126   1.405       .  A
C1125      C1130   1.394       .  A
C1125      H1132   1.083       .  S
C1127      C1128   1.401       .  A
C1127      F1134   1.357       .  S
C1128      H1133   1.083       .  S
C1129      C1130   1.411       .  A
C1130      F1131   1.357       .  S
C1135      C1136   1.406       .  A
C1135      H1142   1.083       .  S
C1137      C1138   1.398       .  A
C1137      F1144   1.357       .  S
C1138      C1139   1.406       .  A
C1138      H1143   1.083       .  S
C1139      C1140   1.411       .  A
C1140      F1141   1.358       .  S
C1145      C1146   1.408   1_545  A
C1145      C1150   1.401       .  A
C1145      H1152   1.083       .  S
C1147      C1148   1.396       .  A
C1147      F1154   1.358       .  S
C1148      C1149   1.406       .  A
C1148      H1153   1.083       .  S
C1150      F1151   1.358       .  S
C1155      C1156   1.407       .  A
C1155      C1160   1.401       .  A
C1155      H1162   1.083       .  S
C1157      C1158   1.395       .  A
C1157      F1164   1.358       .  S
C1158      H1163   1.083       .  S
C1159      C1160   1.411       .  A
C1160      F1161   1.357       .  S
C1165      C1166   1.408   1_545  A
C1165      H1172   1.083       .  S
C1166      C1167   1.409       .  A
C1167      F1174   1.357       .  S
C1168      C1169   1.405       .  A
C1168      H1173   1.083       .  S
C1169      C1170   1.411       .  A
C1170      F1171   1.358       .  S
C1175      C1176   1.409       .  A
C1175      C1180   1.403       .  A
C1175      H1182   1.083       .  S
C1177      C1178   1.395       .  A
C1177      F1184   1.358       .  S
C1178      H1183   1.083       .  S
C1179      C1180   1.410       .  A
C1180      F1181   1.357       .  S
C1185      C2410   1.407       .  A
C1185      C1190   1.398       .  A
C1185      H1192   1.083       .  S
C1186      C2409   1.407       .  A
C1186      C1187   1.411       .  A
C1187      C1188   1.393       .  A
C1187      F1194   1.358       .  S
C1188      C2413   1.405       .  A
C1188      H1193   1.083       .  S
C1189      C2412   1.404       .  A
C1189      C1190   1.410       .  A
C1190      F1191   1.358       .  S
C1195      C1196   1.405   1_655  A
C1195      C1200   1.393       .  A
C1195      H1202   1.083       .  S
C1196      C2421   1.408       .  A
C1197      C2420   1.410       .  A
C1197      C1198   1.399       .  A
C1197      F1204   1.358       .  S
C1198      C2423   1.407       .  A
C1198      H1203   1.083       .  S
C1199      C2422   1.407       .  A
C1199      C1200   1.408   1_455  A
C1200      F1201   1.358       .  S
C1205      C2430   1.407   1_655  A
C1205      C1210   1.399       .  A
C1205      H1212   1.083       .  S
C1206      C2429   1.407       .  A
C1206      C1207   1.410       .  A
C1207      C1208   1.391       .  A
C1207      F1214   1.358       .  S
C1208      C2433   1.405       .  A
C1208      H1213   1.083       .  S
C1209      C2432   1.405       .  A
C1209      C1210   1.411   1_455  A
C1210      F1211   1.358       .  S
C1215      C1216   1.405       .  A
C1215      C1220   1.394       .  A
C1215      H1222   1.083       .  S
C1216      C2441   1.411       .  A
C1217      C2440   1.411   1_455  A
C1217      C1218   1.399       .  A
C1217      F1224   1.358       .  S
C1218      C2443   1.407   1_455  A
C1218      H1223   1.083       .  S
C1219      C2442   1.406       .  A
C1219      C1220   1.409       .  A
C1220      F1221   1.358       .  S
O1225     Zr1237   2.448   1_565  S
O1225      C1227   1.290       .  A
O1226      C1227   1.288       .  A
C1227      C1485   1.488       .  S
O1228     Zr1240   2.434       .  S
O1228      C1230   1.287       .  A
O1229     Zr1876   2.421   1_545  S
O1229      C1230   1.286       .  A
C1230      C1495   1.480       .  S
O1231     Zr1240   2.438   1_655  S
O1231      C1233   1.289       .  A
O1232     Zr1263   2.417   1_545  S
C1233      C1522   1.483       .  S
O1234     Zr1237   2.440   1_565  S
O1234      C1236   1.289       .  A
O1235     Zr1264   2.428   1_655  S
O1235      C1848   1.287       .  A
C1236      O1847   1.285       .  A
C1236      C1455   1.486       .  S
Zr1237     O1238   2.435       .  S
Zr1237     O1851   2.436   1_545  S
Zr1237     O1243   2.370       .  S
Zr1237     O1244   2.370       .  S
Zr1237     O1879   2.372   1_545  S
Zr1237     O1881   2.367   1_545  S
O1238      H1281   0.990       .  S
O1239     Zr1849   2.436       .  S
O1239      H1280   0.990       .  S
O1239      H1284   0.990       .  S
Zr1240     O1241   2.434   1_455  S
Zr1240     O1244   2.370   1_455  S
Zr1240     O1243   2.371   1_455  S
O1241      H1282   0.990       .  S
O1241      H1285   0.990       .  S
O1242      H1275   0.990       .  S
O1244     Zr1876   2.388   1_645  S
O1244      H1271   0.966       .  S
O1245     Zr1257   2.422       .  S
O1245      C1247   1.285       .  A
O1246     Zr1264   2.418       .  S
C1247      C1505   1.479       .  S
O1248     Zr1260   2.425       .  S
O1248      C1250   1.285       .  A
O1249     Zr1263   2.431   1_545  S
O1249      C1862   1.288   1_545  A
C1250      O1861   1.289       .  A
C1250      C1472   1.485       .  S
O1251     Zr1260   2.431       .  S
O1251      C1253   1.287       .  A
O1252      C1253   1.284       .  A
C1253      C1465   1.483       .  S
O1254     Zr1257   2.434       .  S
O1254      C1256   1.288       .  A
O1255     Zr1875   2.418       .  S
O1255      C1256   1.285       .  A
C1256      C1515   1.483       .  S
Zr1257     O1258   2.435       .  S
Zr1257     O1265   2.371       .  S
Zr1257     O1266   2.364       .  S
O1258      H1278   0.990       .  S
O1258      H1283   0.990       .  S
O1259      H1279   0.990       .  S
Zr1260     O1261   2.435       .  S
Zr1260     O1874   2.433       .  S
Zr1260     O1266   2.371       .  S
Zr1260     O1265   2.365       .  S
Zr1260     O1882   2.363       .  S
Zr1260     O1880   2.370       .  S
O1261      H1277   0.990       .  S
O1262     Zr1872   2.436   1_545  S
O1262      H1276   0.990       .  S
O1262      H1286   0.990       .  S
Zr1263     O1867   2.421       .  S
Zr1263     O1878   2.381       .  S
Zr1263     O1268   2.387   1_565  S
Zr1264     O1841   2.425       .  S
Zr1264     O1856   2.380   1_455  S
Zr1264     O1267   2.380   1_455  S
O1265      H1273   0.966       .  S
O1266     Zr1875   2.380       .  S
O1267     Zr1849   2.364       .  S
O1268     Zr1872   2.375   1_545  S
O1268      H1272   0.970       .  S
O1269     Zr1849   2.371       .  S
O1269      H1274   0.965       .  S
O1270     Zr1872   2.370   1_545  S
O1287     Zr1299   2.418       .  S
O1287      C1289   1.284       .  A
O1288     Zr1325   2.426       .  S
C1289      C1525   1.482       .  S
O1290     Zr1302   2.447       .  S
O1290      C1292   1.290       .  A
O1291     Zr1326   2.426       .  S
O1291      C1292   1.287       .  A
C1292      C1412   1.489       .  S
O1293     Zr1302   2.441       .  S
O1293      C1295   1.289       .  A
O1294      C1295   1.284       .  A
C1295      C1425   1.484       .  S
O1296     Zr1299   2.435   1_455  S
O1296      C1298   1.287       .  A
O1297     Zr1326   2.417   1_455  S
O1297      C1298   1.285       .  A
C1298      C1512   1.483       .  S
Zr1299     O1300   2.436       .  S
Zr1299     O1305   2.370       .  S
Zr1299     O1306   2.364       .  S
O1300      H1343   0.990       .  S
O1301      H1342   0.990       .  S
O1301      H1346   0.990       .  S
Zr1302     O1303   2.436       .  S
Zr1302     O1610   2.432   1_554  S
Zr1302     O1306   2.372       .  S
Zr1302     O1305   2.370       .  S
Zr1302     O1636   2.369   1_554  S
Zr1302     O1638   2.368   1_554  S
O1303      H1344   0.990       .  S
O1303      H1347   0.990       .  S
O1304     Zr1608   2.433       .  S
O1304      H1337   0.990       .  S
O1306     Zr1326   2.384       .  S
O1306      H1333   0.966       .  S
O1307     Zr1625   2.443       .  S
O1307      C1309   1.290       .  A
O1308      C1615   1.286       .  A
C1309      O1614   1.286       .  A
C1309      C1432   1.484       .  S
O1310     Zr1322   2.424       .  S
O1310      C1312   1.285       .  A
O1311     Zr1631   2.430       .  S
O1311      C1312   1.288       .  A
C1312      C1492   1.485       .  S
O1313     Zr1322   2.433       .  S
O1313      C1315   1.287       .  A
O1314     Zr1632   2.425   1_455  S
C1315      C1502   1.484       .  S
O1316     Zr1319   2.451       .  S
O1316      C1624   1.291       .  A
O1317     Zr1325   2.422       .  S
O1317      C1624   1.286       .  A
C1318      O1622   1.290       .  A
C1318      O1623   1.288       .  A
C1318      C1442   1.489       .  S
Zr1319     O1613   2.445       .  S
Zr1319     O1626   2.435   1_554  S
Zr1319     O1321   2.438       .  S
Zr1319     O1633   2.376   1_554  S
Zr1319     O1634   2.371   1_554  S
Zr1319     O1331   2.365       .  S
Zr1319     O1329   2.374       .  S
O1320     Zr1625   2.435       .  S
O1320      H1340   0.990       .  S
O1320      H1345   0.990       .  S
O1321      H1341   0.990       .  S
Zr1322     O1323   2.436       .  S
Zr1322     O1328   2.371       .  S
Zr1322     O1327   2.370       .  S
O1323      H1339   0.990       .  S
O1324      H1338   0.990       .  S
O1324      H1348   0.990       .  S
Zr1325     O1617   2.422   1_554  S
Zr1325     O1634   2.381   1_554  S
Zr1325     O1331   2.385       .  S
Zr1326     O1620   2.423   1_554  S
Zr1326     O1638   2.380   1_554  S
O1327     Zr1625   2.373       .  S
O1327      H1335   0.966       .  S
O1328     Zr1625   2.369       .  S
O1328     Zr1631   2.378       .  S
O1330     Zr1608   2.365       .  S
O1330      H1334   0.965       .  S
O1331      H1336   0.967       .  S
O1332     Zr1608   2.371       .  S
O1332     Zr1632   2.379       .  S
O1349     Zr1361   2.434   1_554  S
O1349      C1351   1.287       .  A
O1350     Zr1999   2.424   1_545  S
O1350      C1351   1.287       .  A
C1351      C1422   1.485       .  S
O1352     Zr1364   2.445       .  S
O1352      C1966   1.290       .  A
O1353     Zr1388   2.421   1_545  S
O1353      C1354   1.286   1_545  A
C1354      O1964   1.289       .  A
C1354      C1475   1.487       .  S
O1355     Zr1364   2.437       .  S
O1355      C1969   1.288       .  A
O1356     Zr1387   2.424       .  S
O1356      C1969   1.287       .  A
C1357      O1967   1.289       .  A
C1357      O1968   1.286       .  A
C1357      C1482   1.483       .  S
O1358     Zr1361   2.437       .  S
O1358      C1360   1.288       .  A
O1359     Zr1388   2.429   1_545  S
O1359      C1360   1.288   1_554  A
C1360      C1445   1.489       .  S
Zr1361     O1362   2.431   1_556  S
Zr1361     O1669   2.432       .  S
Zr1361     O1367   2.373   1_556  S
Zr1361     O1368   2.365   1_556  S
Zr1361     O1697   2.365       .  S
Zr1361     O1699   2.371       .  S
O1362      H1405   0.990       .  S
O1363     Zr1667   2.435       .  S
O1363      H1404   0.990       .  S
O1363      H1408   0.990       .  S
Zr1364     O1977   2.437       .  S
Zr1364     O1366   2.437       .  S
Zr1364     O1980   2.367       .  S
Zr1364     O1979   2.372       .  S
Zr1364     O1392   2.371       .  S
Zr1364     O1394   2.371       .  S
O1365     Zr1976   2.435       .  S
O1365      H1406   0.990       .  S
O1365      H1409   0.990       .  S
O1366      H1399   0.990       .  S
O1367     Zr1976   2.369       .  S
O1367     Zr1999   2.382   1_545  S
O1368     Zr1976   2.367       .  S
O1368     Zr1388   2.383   1_545  S
O1368      H1395   0.967       .  S
O1369     Zr1381   2.439       .  S
O1369      C1983   1.288       .  A
O1370     Zr1694   2.423   1_545  S
O1370      C1983   1.287       .  A
C1371      O1981   1.289       .  A
C1371      O1982   1.286       .  A
C1371      C1462   1.487       .  S
O1372     Zr1384   2.436       .  S
O1372      C1680   1.287       .  A
O1373     Zr1387   2.419       .  S
O1373      C1680   1.286       .  A
C1374      O1678   1.287       .  A
C1374      O1679   1.288       .  A
C1374      C1415   1.489       .  S
O1375     Zr1384   2.435       .  S
O1375      C1683   1.286       .  A
O1376     Zr2000   2.422       .  S
O1376      C1683   1.286       .  A
C1377      O1681   1.288       .  A
C1377      O1682   1.287       .  A
C1377      C1435   1.484       .  S
O1378     Zr1381   2.432       .  S
O1378      C1992   1.287   1_545  A
O1379     Zr1693   2.426       .  S
O1379      C1380   1.287       .  A
C1380      O1990   1.290       .  A
C1380      C1452   1.494       .  S
Zr1381     O1994   2.433   1_545  S
Zr1381     O1383   2.433       .  S
Zr1381     O2001   2.363   1_545  S
Zr1381     O2002   2.371   1_545  S
Zr1381     O1393   2.366       .  S
Zr1381     O1391   2.366       .  S
O1382     Zr1993   2.437       .  S
O1382      H1402   0.990       .  S
O1382      H1407   0.990       .  S
O1383      H1403   0.990       .  S
Zr1384     O1691   2.432   1_554  S
Zr1384     O1386   2.436       .  S
Zr1384     O1696   2.376   1_554  S
Zr1384     O1695   2.371   1_554  S
Zr1384     O1394   2.367       .  S
Zr1384     O1392   2.366       .  S
O1385     Zr1690   2.438       .  S
O1385      H1401   0.990       .  S
O1386      H1400   0.990       .  S
O1386      H1410   0.991       .  S
Zr1387     O1962   2.429   1_554  S
Zr1387     O1685   2.440   1_554  S
Zr1387     O1979   2.387       .  S
Zr1387     O1696   2.385   1_554  S
Zr1387     O1392   2.393       .  S
Zr1387     O2311   2.381   1_554  S
Zr1388     O1676   2.425   1_554  S
Zr1388     O1988   2.424       .  S
Zr1388     O2307   2.386   1_554  S
Zr1388     O1697   2.378   1_564  S
Zr1388     O2006   2.379       .  S
O1389     Zr1993   2.372       .  S
O1389     Zr1690   2.370       .  S
O1389     Zr2306   2.386       .  S
O1389      H1397   0.966       .  S
O1390     Zr1993   2.368       .  S
O1390     Zr1690   2.368       .  S
O1390     Zr1693   2.383       .  S
O1391     Zr1667   2.367       .  S
O1391     Zr1694   2.380   1_545  S
O1392      H1396   0.965       .  S
O1393     Zr1667   2.368       .  S
O1393     Zr2305   2.388   1_545  S
O1393      H1398   0.965       .  S
O1394     Zr2000   2.387       .  S
C1411      C1412   1.406   1_556  A
C1411      C1416   1.395       .  A
C1411      H1418   1.083       .  S
C1412      C1719   1.412       .  A
C1413      C1718   1.410       .  A
C1413      C1414   1.399       .  A
C1413      F1420   1.357       .  S
C1414      C1415   1.407       .  A
C1414      H1419   1.083       .  S
C1415      C1722   1.412       .  A
C1416      C1721   1.409   1_556  A
C1416      F1417   1.358       .  S
C1421      C1422   1.407   1_556  A
C1421      C1426   1.399       .  A
C1421      H1428   1.083       .  S
C1422      C1423   1.410       .  A
C1423      C1424   1.392       .  A
C1423      F1430   1.358       .  S
C1424      C1425   1.405       .  A
C1424      H1429   1.083       .  S
C1425      C1426   1.411   1_554  A
C1426      F1427   1.358       .  S
C1431      C1432   1.405       .  A
C1431      C1436   1.395       .  A
C1431      H1438   1.083       .  S
C1432      C1739   1.410       .  A
C1433      C1738   1.411       .  A
C1433      C1434   1.400       .  A
C1433      F1440   1.357   1_554  S
C1434      C1741   1.407       .  A
C1434      H1439   1.083   1_554  S
C1435      C1740   1.406       .  A
C1435      C1436   1.410       .  A
C1436      F1437   1.358       .  S
C1441      C1442   1.406       .  A
C1441      C1752   1.397       .  A
C1441      H1448   1.083       .  S
C1442      C1749   1.411       .  A
C1443      C1748   1.412   1_554  A
C1443      C1444   1.402       .  A
C1443      F1450   1.357       .  S
C1444      C1445   1.407   1_554  A
C1444      H1449   1.083       .  S
C1445      C1446   1.411       .  A
C1446      C1747   1.396       .  A
C1446      F1447   1.358       .  S
C1451      C1452   1.410       .  A
C1451      C1456   1.404       .  A
C1451      H1458   1.083       .  S
C1452      C2065   1.410       .  A
C1453      C2064   1.410       .  A
C1453      C1454   1.392       .  A
C1453      F1460   1.358       .  S
C1454      C1455   1.405       .  A
C1454      H1459   1.083       .  S
C1455      C2068   1.412       .  A
C1456      C2067   1.412       .  A
C1456      F1457   1.358       .  S
C1461      C1462   1.410       .  A
C1461      C1466   1.402       .  A
C1461      H1468   1.083       .  S
C1462      C2075   1.409       .  A
C1463      C2074   1.410       .  A
C1463      C1464   1.394       .  A
C1463      F1470   1.358       .  S
C1464      C2077   1.406       .  A
C1464      H1469   1.083       .  S
C1465      C2076   1.404       .  A
C1465      C1466   1.410       .  A
C1466      F1467   1.358       .  S
C1471      C1472   1.406       .  A
C1471      C2088   1.398       .  A
C1471      H1478   1.083       .  S
C1472      C1473   1.412       .  A
C1473      C2086   1.395       .  A
C1473      F1480   1.358       .  S
C1474      C2085   1.394       .  A
C1474      C1475   1.405   1_545  A
C1474      H1479   1.083       .  S
C1475      C1476   1.411       .  A
C1476      C2083   1.400       .  A
C1476      F1477   1.357       .  S
C1481      C1482   1.406   1_545  A
C1481      C1486   1.400       .  A
C1481      H1488   1.083       .  S
C1482      C2095   1.409       .  A
C1483      C2094   1.410       .  A
C1483      C1484   1.393       .  A
C1483      F1490   1.358       .  S
C1484      C2097   1.404       .  A
C1484      H1489   1.083       .  S
C1485      C2096   1.407       .  A
C1485      C1486   1.411   1_565  A
C1486      F1487   1.357       .  S
C1491      C1496   1.400       .  A
C1491      H1498   1.083       .  S
C1492      C1493   1.411       .  A
C1493      C1494   1.396       .  A
C1493      F1500   1.358       .  S
C1494      H1499   1.083       .  S
C1495      C1496   1.409       .  A
C1496      F1497   1.357       .  S
C1501      C1502   1.406       .  A
C1501      C1506   1.393       .  A
C1501      H1508   1.083       .  S
C1503      C1504   1.400       .  A
C1503      F1510   1.357       .  S
C1504      H1509   1.083       .  S
C1505      C1506   1.410       .  A
C1506      F1507   1.358       .  S
C1511      C1516   1.397       .  A
C1511      H1518   1.083       .  S
C1512      C1513   1.409       .  A
C1513      C1514   1.392       .  A
C1513      F1520   1.358       .  S
C1514      H1519   1.083       .  S
C1515      C1516   1.410       .  A
C1516      F1517   1.357       .  S
C1521      C1522   1.404       .  A
C1521      C1526   1.392       .  A
C1521      H1528   1.083       .  S
C1523      C1524   1.398       .  A
C1523      F1530   1.357       .  S
C1524      H1529   1.083       .  S
C1525      C1526   1.412       .  A
C1526      F1527   1.358       .  S
O1531     Zr1543   2.434       .  S
O1531      C1533   1.288       .  A
O1532      C1533   1.287       .  A
C1533      C1791   1.487       .  S
O1534     Zr1546   2.440   1_455  S
O1534      C1536   1.288   1_455  A
O1535     Zr2182   2.422   1_645  S
O1535      C1536   1.286       .  A
C1536      C1801   1.478   1_655  S
O1537     Zr1546   2.436       .  S
O1537      C1539   1.288       .  A
O1538     Zr1569   2.414       .  S
C1539      C1828   1.481       .  S
O1540     Zr1543   2.435       .  S
O1540      C1542   1.288       .  A
O1541     Zr1570   2.430   1_655  S
O1541      C2154   1.288       .  A
C1542      O2153   1.287       .  A
C1542      C1761   1.487       .  S
Zr1543     O1544   2.433   1_565  S
Zr1543     O2157   2.434       .  S
Zr1543     O1549   2.370   1_565  S
Zr1543     O1550   2.370   1_565  S
Zr1543     O2185   2.366       .  S
Zr1543     O2187   2.367       .  S
O1544      H1587   0.990       .  S
O1545     Zr2155   2.431       .  S
O1545      H1586   0.990       .  S
O1545      H1590   0.990       .  S
Zr1546     O1547   2.437       .  S
Zr1546     O1550   2.369       .  S
Zr1546     O1549   2.367       .  S
O1547      H1588   0.990       .  S
O1547      H1591   0.990       .  S
O1548      H1581   0.990       .  S
O1550     Zr2182   2.383   1_645  S
O1550      H1577   0.966       .  S
O1551     Zr1563   2.436       .  S
O1551      C1553   1.288       .  A
O1552     Zr1570   2.429   1_655  S
C1553      C1811   1.481       .  S
O1554     Zr1566   2.429       .  S
O1554      C1556   1.286       .  A
O1555     Zr1569   2.434   1_565  S
O1555      C2168   1.289       .  A
C1556      O2167   1.288       .  A
C1556      C1778   1.483       .  S
O1557     Zr1566   2.440       .  S
O1557      C1559   1.289       .  A
O1558      C1559   1.286       .  A
C1559      C1771   1.489       .  S
O1560     Zr1563   2.435       .  S
O1560      C1562   1.288       .  A
O1561     Zr2181   2.406       .  S
O1561      C1562   1.283       .  A
C1562      C1821   1.477       .  S
Zr1563     O1564   2.434       .  S
Zr1563     O1571   2.367       .  S
Zr1563     O1572   2.367       .  S
O1564      H1584   0.990       .  S
O1564      H1589   0.990       .  S
O1565      H1585   0.990       .  S
Zr1566     O1567   2.437       .  S
Zr1566     O2180   2.431       .  S
Zr1566     O1572   2.373       .  S
Zr1566     O1571   2.362       .  S
Zr1566     O2188   2.370       .  S
Zr1566     O2186   2.372       .  S
O1567      H1583   0.990       .  S
O1568     Zr2178   2.435       .  S
O1568      H1582   0.990       .  S
O1568      H1592   0.990       .  S
Zr1569     O2173   2.414   1_545  S
Zr1569     O2184   2.379   1_545  S
Zr1569     O1574   2.384       .  S
Zr1570     O2147   2.420       .  S
Zr1570     O2162   2.386   1_455  S
Zr1570     O1573   2.379   1_455  S
O1571      H1579   0.966       .  S
O1572     Zr2181   2.383       .  S
O1573     Zr2155   2.370       .  S
O1574     Zr2178   2.370       .  S
O1574      H1578   0.970       .  S
O1575     Zr2155   2.367       .  S
O1575      H1580   0.964       .  S
O1576     Zr2178   2.367       .  S
O1593     Zr1605   2.426       .  S
O1593      C1595   1.285       .  A
O1594     Zr1631   2.428       .  S
C1595      C1831   1.483       .  S
O1596     Zr1608   2.436       .  S
O1596      C1598   1.288       .  A
O1597     Zr1632   2.423       .  S
O1597      C1598   1.286       .  A
C1598      C1718   1.486       .  S
O1599     Zr1608   2.443       .  S
O1599      C1601   1.289       .  A
O1600      C1601   1.286       .  A
C1601      C1731   1.489       .  S
O1602     Zr1605   2.421       .  S
O1602      C1604   1.285       .  A
O1603     Zr1632   2.413       .  S
O1603      C1604   1.285       .  A
C1604      C1818   1.477       .  S
Zr1605     O1606   2.435       .  S
Zr1605     O1611   2.365       .  S
Zr1605     O1612   2.369       .  S
O1606      H1649   0.990       .  S
O1607      H1648   0.990       .  S
O1607      H1652   0.990       .  S
Zr1608     O1609   2.434       .  S
Zr1608     O1612   2.369       .  S
Zr1608     O1611   2.367       .  S
O1609      H1650   0.990       .  S
O1609      H1653   0.990       .  S
O1610      H1643   0.990       .  S
O1612     Zr1632   2.387       .  S
O1612      H1639   0.966       .  S
O1613      C1615   1.290       .  A
C1615      C1738   1.487       .  S
O1616     Zr1628   2.439       .  S
O1616      C1618   1.288       .  A
O1617      C1618   1.286       .  A
C1618      C1798   1.487       .  S
O1619     Zr1628   2.441       .  S
O1619      C1621   1.289       .  A
C1621      C1808   1.484       .  S
O1622     Zr1625   2.446       .  S
O1623     Zr1631   2.430       .  S
C1624      C1748   1.490   1_554  S
Zr1625     O1627   2.436       .  S
Zr1625     O1637   2.370       .  S
Zr1625     O1635   2.369       .  S
O1626      H1646   0.990       .  S
O1626      H1651   0.990       .  S
O1627      H1647   0.990       .  S
Zr1628     O1629   2.433       .  S
Zr1628     O1634   2.371       .  S
Zr1628     O1633   2.371       .  S
O1629      H1645   0.990       .  S
O1630      H1644   0.990       .  S
O1630      H1654   0.990       .  S
Zr1631     O1637   2.384       .  S
O1633      H1641   0.965       .  S
O1636      H1640   0.966       .  S
O1637      H1642   0.966       .  S
O1655     Zr1667   2.434       .  S
O1655      C1657   1.287       .  A
O1656     Zr2305   2.418   1_545  S
O1656      C1657   1.286       .  A
C1657      C1728   1.485       .  S
O1658     Zr1670   2.435       .  S
O1658      C2272   1.287       .  A
O1659     Zr1694   2.417       .  S
O1659      C1660   1.285       .  A
C1660      O2270   1.288       .  A
C1660      C1781   1.483       .  S
O1661     Zr1670   2.433       .  S
O1661      C2275   1.286       .  A
O1662     Zr1693   2.426       .  S
O1662      C2275   1.287       .  A
C1663      O2273   1.288       .  A
C1663      O2274   1.288       .  A
C1663      C1788   1.489       .  S
O1664     Zr1667   2.437       .  S
O1664      C1666   1.288       .  A
O1665     Zr1694   2.430   1_545  S
O1665      C1666   1.288       .  A
C1666      C1751   1.486       .  S
Zr1667     O1668   2.432       .  S
Zr1667     O1673   2.371       .  S
Zr1667     O1674   2.368       .  S
O1668      H1711   0.990       .  S
O1669      H1710   0.990       .  S
O1669      H1714   0.990       .  S
Zr1670     O2283   2.435       .  S
Zr1670     O1672   2.433       .  S
Zr1670     O2286   2.371       .  S
Zr1670     O2285   2.371       .  S
Zr1670     O1698   2.369       .  S
Zr1670     O1700   2.371       .  S
O1671     Zr2282   2.436   1_545  S
O1671      H1712   0.990       .  S
O1671      H1715   0.990       .  S
O1672      H1705   0.990       .  S
O1673     Zr2282   2.368   1_545  S
O1673     Zr2305   2.382   1_545  S
O1674     Zr2282   2.371   1_545  S
O1674     Zr1694   2.386   1_545  S
O1674      H1701   0.967       .  S
O1675     Zr1687   2.428       .  S
O1675      C2289   1.286       .  A
O1676      C2289   1.288       .  A
C1677      O2287   1.285       .  A
C1677      O2288   1.288       .  A
C1677      C1768   1.489       .  S
O1678     Zr1690   2.434       .  S
O1679     Zr1693   2.430       .  S
C1680      C1721   1.484       .  S
O1681     Zr1690   2.440       .  S
O1682     Zr2306   2.424       .  S
C1683      C1741   1.486       .  S
O1684     Zr1687   2.432       .  S
O1684      C2298   1.286       .  A
O1685      C1686   1.290       .  A
C1686      O2296   1.288       .  A
C1686      C1758   1.493       .  S
Zr1687     O2300   2.433       .  S
Zr1687     O1689   2.434   1_565  S
Zr1687     O2307   2.370       .  S
Zr1687     O2308   2.365       .  S
Zr1687     O1699   2.365   1_565  S
Zr1687     O1697   2.368   1_565  S
O1688     Zr2299   2.437       .  S
O1688      H1708   0.990       .  S
O1688      H1713   0.990       .  S
O1689      H1709   0.990       .  S
Zr1690     O1692   2.436       .  S
Zr1690     O1700   2.369       .  S
Zr1690     O1698   2.372       .  S
O1691      H1707   0.990       .  S
O1692      H1706   0.990       .  S
O1692      H1716   0.990       .  S
Zr1693     O2268   2.435       .  S
Zr1693     O2285   2.385       .  S
Zr1693     O1698   2.387       .  S
Zr1693     O2005   2.385       .  S
Zr1694     O2294   2.433       .  S
Zr1694     O2001   2.378       .  S
Zr1694     O2312   2.378       .  S
O1695     Zr2299   2.371       .  S
O1695     Zr2000   2.386   1_556  S
O1695      H1703   0.966       .  S
O1696     Zr2299   2.372       .  S
O1698      H1702   0.966       .  S
O1699     Zr1999   2.382   1_546  S
O1699      H1704   0.964       .  S
O1700     Zr2306   2.383       .  S
C1717      C1718   1.406       .  A
C1717      C1722   1.395       .  A
C1717      H1724   1.083       .  S
C1719      C1720   1.400       .  A
C1719      F1726   1.357       .  S
C1720      C1721   1.406       .  A
C1720      H1725   1.083       .  S
C1722      F1723   1.358       .  S
C1727      C1728   1.407       .  A
C1727      C1732   1.400       .  A
C1727      H1734   1.083       .  S
C1728      C1729   1.410       .  A
C1729      C1730   1.394       .  A
C1729      F1736   1.358       .  S
C1730      C1731   1.406       .  A
C1730      H1735   1.083       .  S
C1731      C1732   1.411       .  A
C1732      F1733   1.357       .  S
C1737      C1738   1.406       .  A
C1737      C1742   1.395       .  A
C1737      H1744   1.083       .  S
C1739      C1740   1.400       .  A
C1739      F1746   1.357       .  S
C1740      H1745   1.083       .  S
C1741      C1742   1.410       .  A
C1742      F1743   1.358       .  S
C1747      C1748   1.405       .  A
C1747      H1754   1.083       .  S
C1749      C1750   1.401       .  A
C1749      F1756   1.357       .  S
C1750      C1751   1.406       .  A
C1750      H1755   1.083       .  S
C1751      C1752   1.409       .  A
C1752      F1753   1.358       .  S
C1757      C1758   1.408       .  A
C1757      C1762   1.401       .  A
C1757      H1764   1.083       .  S
C1758      C2371   1.412       .  A
C1759      C2370   1.410       .  A
C1759      C1760   1.395       .  A
C1759      F1766   1.358       .  S
C1760      C1761   1.406       .  A
C1760      H1765   1.083       .  S
C1761      C2374   1.410   1_565  A
C1762      C2373   1.410       .  A
C1762      F1763   1.357       .  S
C1767      C1768   1.407       .  A
C1767      C1772   1.402       .  A
C1767      H1774   1.083       .  S
C1768      C2381   1.412       .  A
C1769      C2380   1.410   1_545  A
C1769      C1770   1.393       .  A
C1769      F1776   1.358       .  S
C1770      C2383   1.405       .  A
C1770      H1775   1.083       .  S
C1771      C2382   1.405       .  A
C1771      C1772   1.412       .  A
C1772      F1773   1.357       .  S
C1777      C1778   1.405       .  A
C1777      C2394   1.398       .  A
C1777      H1784   1.083       .  S
C1778      C1779   1.410       .  A
C1779      C2392   1.395       .  A
C1779      F1786   1.358       .  S
C1780      C2391   1.392       .  A
C1780      C1781   1.404       .  A
C1780      H1785   1.083       .  S
C1781      C1782   1.410   1_565  A
C1782      C2389   1.400       .  A
C1782      F1783   1.358       .  S
C1787      C1788   1.408       .  A
C1787      C1792   1.401       .  A
C1787      H1794   1.083       .  S
C1788      C2401   1.410   1_565  A
C1789      C2400   1.410       .  A
C1789      C1790   1.395       .  A
C1789      F1796   1.358       .  S
C1790      C2403   1.405       .  A
C1790      H1795   1.083       .  S
C1791      C2402   1.406   1_565  A
C1791      C1792   1.410       .  A
C1792      F1793   1.357       .  S
C1797      C1802   1.399       .  A
C1797      H1804   1.083       .  S
C1798      C1799   1.410       .  A
C1799      C1800   1.393       .  A
C1799      F1806   1.357       .  S
C1800      H1805   1.083       .  S
C1801      C1802   1.408   1_455  A
C1802      F1803   1.358       .  S
C1807      C1808   1.405       .  A
C1807      C1812   1.393       .  A
C1807      H1814   1.083       .  S
C1809      C1810   1.401       .  A
C1809      F1816   1.357       .  S
C1810      H1815   1.083       .  S
C1811      C1812   1.407       .  A
C1812      F1813   1.357       .  S
C1817      C1822   1.397       .  A
C1817      H1824   1.083       .  S
C1818      C1819   1.409   1_655  A
C1819      C1820   1.391       .  A
C1819      F1826   1.358       .  S
C1820      H1825   1.083       .  S
C1821      C1822   1.409       .  A
C1822      F1823   1.358       .  S
C1827      C1828   1.404       .  A
C1827      C1832   1.392       .  A
C1827      H1834   1.083       .  S
C1829      C1830   1.398       .  A
C1829      F1836   1.358       .  S
C1830      H1835   1.083       .  S
C1831      C1832   1.411       .  A
C1832      F1833   1.358       .  S
O1837     Zr1849   2.440       .  S
O1837      C1839   1.289       .  A
O1838      C1839   1.285       .  A
C1839      C2097   1.482       .  S
O1840     Zr1852   2.423   1_455  S
O1840      C1842   1.285       .  A
O1841      C1842   1.287       .  A
C1842      C2107   1.483       .  S
O1843     Zr1852   2.434       .  S
O1843      C1845   1.287       .  A
O1844     Zr1875   2.419       .  S
C1845      C2134   1.482       .  S
O1846     Zr1849   2.447       .  S
O1846      C1848   1.290       .  A
O1847     Zr1876   2.417   1_655  S
C1848      C2067   1.494       .  S
Zr1849     O1850   2.433       .  S
Zr1849     O1855   2.374       .  S
Zr1849     O1856   2.370       .  S
O1850      H1893   0.990       .  S
O1851      H1892   0.990       .  S
O1851      H1896   0.990       .  S
Zr1852     O1853   2.436       .  S
Zr1852     O1856   2.371       .  S
Zr1852     O1855   2.365       .  S
O1853      H1894   0.990       .  S
O1853      H1897   0.990       .  S
O1854      H1887   0.990       .  S
O1856      H1883   0.966       .  S
O1857     Zr1869   2.427       .  S
O1857      C1859   1.285       .  A
O1858     Zr1876   2.424   1_655  S
C1859      C2117   1.485       .  S
O1860     Zr1872   2.428       .  S
O1860      C1862   1.285       .  A
O1861     Zr1875   2.431       .  S
C1862      C2084   1.487       .  S
O1863     Zr1872   2.437   1_545  S
O1863      C1865   1.288       .  A
O1864      C1865   1.286       .  A
C1865      C2077   1.488       .  S
O1866     Zr1869   2.427       .  S
O1866      C1868   1.286       .  A
O1867      C1868   1.286       .  A
C1868      C2127   1.482       .  S
Zr1869     O1870   2.437       .  S
Zr1869     O1877   2.367       .  S
Zr1869     O1878   2.370       .  S
O1870      H1890   0.990       .  S
O1870      H1895   0.990       .  S
O1871      H1891   0.990       .  S
Zr1872     O1873   2.434       .  S
Zr1872     O1878   2.368       .  S
Zr1872     O1877   2.363       .  S
O1873      H1889   0.990       .  S
O1874      H1888   0.990       .  S
O1874      H1898   0.990       .  S
Zr1875     O1880   2.387       .  S
Zr1876     O1879   2.382   1_455  S
O1877      H1885   0.966       .  S
O1880      H1884   0.966       .  S
O1881      H1886   0.964       .  S
O1899     Zr1911   2.431       .  S
O1899      C1901   1.286       .  A
O1900     Zr1937   2.421       .  S
C1901      C2137   1.484       .  S
O1902     Zr1914   2.441       .  S
O1902      C1904   1.289       .  A
O1903     Zr1938   2.418   1_656  S
O1903      C1904   1.285       .  A
C1904      C2024   1.484       .  S
O1905     Zr1914   2.440       .  S
O1905      C1907   1.289       .  A
O1906      C1907   1.287       .  A
C1907      C2037   1.489       .  S
O1908     Zr1911   2.431       .  S
O1908      C1910   1.287       .  A
O1909     Zr1938   2.420   1_655  S
O1909      C1910   1.286       .  A
C1910      C2124   1.485       .  S
Zr1911     O1912   2.436       .  S
Zr1911     O1917   2.370       .  S
Zr1911     O1918   2.367       .  S
O1912      H1955   0.990       .  S
O1913      H1954   0.990       .  S
O1913      H1958   0.990       .  S
Zr1914     O1915   2.438   1_556  S
Zr1914     O2222   2.434       .  S
Zr1914     O1918   2.368   1_556  S
Zr1914     O1917   2.374   1_556  S
Zr1914     O2248   2.368       .  S
Zr1914     O2250   2.372       .  S
O1915      H1956   0.990       .  S
O1915      H1959   0.990       .  S
O1916     Zr2220   2.435       .  S
O1916      H1949   0.990       .  S
O1918     Zr1938   2.386   1_655  S
O1918      H1945   0.968       .  S
O1919     Zr2237   2.438       .  S
O1919      C1921   1.288       .  A
O1920      C2227   1.287       .  A
C1921      O2226   1.287       .  A
C1921      C2044   1.488       .  S
O1922     Zr1934   2.440       .  S
O1922      C1924   1.288       .  A
O1923     Zr2243   2.416       .  S
O1923      C1924   1.285       .  A
C1924      C2104   1.474       .  S
O1925     Zr1934   2.436       .  S
O1925      C1927   1.288       .  A
O1926     Zr2244   2.417   1_655  S
C1927      C2114   1.484       .  S
O1928     Zr1931   2.432       .  S
O1928      C2236   1.287       .  A
O1929     Zr1937   2.431       .  S
O1929      C2236   1.288       .  A
C1930      O2234   1.288       .  A
C1930      O2235   1.286       .  A
C1930      C2054   1.487       .  S
Zr1931     O2225   2.437       .  S
Zr1931     O2238   2.439   1_554  S
Zr1931     O1933   2.437       .  S
Zr1931     O2245   2.369   1_554  S
Zr1931     O2246   2.371   1_554  S
Zr1931     O1943   2.370       .  S
Zr1931     O1941   2.371       .  S
O1932     Zr2237   2.434       .  S
O1932      H1952   0.990       .  S
O1932      H1957   0.990       .  S
O1933      H1953   0.990       .  S
Zr1934     O1935   2.435       .  S
Zr1934     O1940   2.369       .  S
Zr1934     O1939   2.367       .  S
O1935      H1951   0.990       .  S
O1936      H1950   0.990       .  S
O1936      H1960   0.990       .  S
Zr1937     O2229   2.414   1_554  S
Zr1937     O2246   2.382   1_554  S
Zr1937     O1943   2.386       .  S
Zr1938     O2232   2.421   1_554  S
Zr1938     O2250   2.383   1_454  S
O1939     Zr2237   2.371       .  S
O1939      H1947   0.966       .  S
O1940     Zr2237   2.372       .  S
O1940     Zr2243   2.384       .  S
O1942     Zr2220   2.374       .  S
O1942      H1946   0.965       .  S
O1943      H1948   0.967       .  S
O1944     Zr2220   2.368       .  S
O1944     Zr2244   2.377   1_655  S
O1961     Zr1973   2.434       .  S
O1961      C1963   1.287       .  A
O1962      C1963   1.288       .  A
C1963      C2034   1.489       .  S
O1964     Zr1976   2.442   1_565  S
O1965     Zr2000   2.416       .  S
O1965      C1966   1.285       .  A
C1966      C2087   1.486       .  S
O1967     Zr1976   2.442   1_565  S
O1968     Zr1999   2.420       .  S
C1969      C2094   1.484       .  S
O1970     Zr1973   2.431       .  S
O1970      C1972   1.286   1_556  A
O1971     Zr2000   2.426       .  S
O1971      C1972   1.287       .  A
C1972      C2057   1.488       .  S
Zr1973     O1974   2.430   1_556  S
Zr1973     O2281   2.432       .  S
Zr1973     O1979   2.371   1_556  S
Zr1973     O1980   2.367   1_556  S
Zr1973     O2309   2.363       .  S
Zr1973     O2311   2.365       .  S
O1974      H2017   0.989       .  S
O1975     Zr2279   2.434       .  S
O1975      H2016   0.990       .  S
O1975      H2020   0.990       .  S
Zr1976     O1978   2.433   1_545  S
Zr1976     O2004   2.370   1_545  S
Zr1976     O2006   2.371   1_545  S
O1977      H2018   0.990       .  S
O1977      H2021   0.990       .  S
O1978      H2011   0.990       .  S
O1980     Zr2000   2.385       .  S
O1980      H2007   0.966       .  S
O1981     Zr1993   2.446       .  S
O1982     Zr2306   2.423       .  S
C1983      C2074   1.488       .  S
O1984     Zr1996   2.436       .  S
O1984      C2292   1.288       .  A
O1985     Zr1999   2.416       .  S
O1985      C2292   1.285       .  A
C1986      O2290   1.288       .  A
C1986      O2291   1.288       .  A
C1986      C2027   1.490       .  S
O1987     Zr1996   2.433       .  S
O1987      C2295   1.286       .  A
O1988      C2295   1.287       .  A
C1989      O2293   1.287       .  A
C1989      O2294   1.289       .  A
C1989      C2047   1.488       .  S
O1990     Zr1993   2.446       .  S
O1991     Zr2305   2.423       .  S
O1991      C1992   1.287       .  A
C1992      C2064   1.486       .  S
Zr1993     O1995   2.435       .  S
Zr1993     O2005   2.369       .  S
Zr1993     O2003   2.372       .  S
O1994      H2014   0.990       .  S
O1994      H2019   0.990       .  S
O1995      H2015   0.990       .  S
Zr1996     O2303   2.436   1_554  S
Zr1996     O1998   2.433       .  S
Zr1996     O2308   2.368   1_554  S
Zr1996     O2307   2.368   1_554  S
Zr1996     O2006   2.366       .  S
Zr1996     O2004   2.365       .  S
O1997     Zr2302   2.435       .  S
O1997      H2013   0.990       .  S
O1998      H2012   0.990       .  S
O1998      H2022   0.990       .  S
Zr1999     O2297   2.424   1_554  S
Zr1999     O2308   2.379   1_554  S
Zr1999     O2004   2.386       .  S
Zr2000     O2288   2.432   1_554  S
Zr2000     O2309   2.379   1_554  S
O2001     Zr2302   2.366       .  S
O2001      H2009   0.965       .  S
O2002     Zr2302   2.364       .  S
O2002     Zr2305   2.377       .  S
O2003     Zr2279   2.369       .  S
O2003     Zr2306   2.381       .  S
O2004      H2008   0.966       .  S
O2005     Zr2279   2.371       .  S
O2005      H2010   0.966       .  S
C2023      C2024   1.405   1_554  A
C2023      C2028   1.391       .  A
C2023      H2030   1.083       .  S
C2024      C2331   1.411       .  A
C2025      C2330   1.411       .  A
C2025      C2026   1.402       .  A
C2025      F2032   1.358       .  S
C2026      C2027   1.409       .  A
C2026      H2031   1.083       .  S
C2027      C2334   1.411       .  A
C2028      C2333   1.409   1_554  A
C2028      F2029   1.358       .  S
C2033      C2034   1.407       .  A
C2033      C2038   1.401       .  A
C2033      H2040   1.083       .  S
C2034      C2035   1.411   1_556  A
C2035      C2036   1.395       .  A
C2035      F2042   1.358       .  S
C2036      C2037   1.406   1_554  A
C2036      H2041   1.083       .  S
C2037      C2038   1.411       .  A
C2038      F2039   1.357       .  S
C2043      C2044   1.406       .  A
C2043      C2048   1.396       .  A
C2043      H2050   1.083       .  S
C2044      C2351   1.410       .  A
C2045      C2350   1.410       .  A
C2045      C2046   1.400       .  A
C2045      F2052   1.357       .  S
C2046      C2353   1.407       .  A
C2046      H2051   1.083       .  S
C2047      C2352   1.407       .  A
C2047      C2048   1.411       .  A
C2048      F2049   1.358       .  S
C2053      C2054   1.406       .  A
C2053      C2364   1.395       .  A
C2053      H2060   1.083       .  S
C2054      C2361   1.410       .  A
C2055      C2360   1.410       .  A
C2055      C2056   1.400       .  A
C2055      F2062   1.357       .  S
C2056      C2057   1.407       .  A
C2056      H2061   1.083       .  S
C2057      C2058   1.412   1_554  A
C2058      C2359   1.395       .  A
C2058      F2059   1.358       .  S
C2063      C2064   1.407       .  A
C2063      C2068   1.400       .  A
C2063      H2070   1.083   1_565  S
C2065      C2066   1.397       .  A
C2065      F2072   1.357       .  S
C2066      C2067   1.407       .  A
C2066      H2071   1.083       .  S
C2068      F2069   1.358   1_565  S
C2073      C2074   1.408       .  A
C2073      C2078   1.401       .  A
C2073      H2080   1.083       .  S
C2075      C2076   1.390       .  A
C2075      F2082   1.357       .  S
C2076      H2081   1.083       .  S
C2077      C2078   1.410       .  A
C2078      F2079   1.357   1_545  S
C2083      C2084   1.406       .  A
C2083      H2090   1.083       .  S
C2084      C2085   1.412   1_565  A
C2085      F2092   1.358       .  S
C2086      C2087   1.405       .  A
C2086      H2091   1.083       .  S
C2087      C2088   1.411       .  A
C2088      F2089   1.357       .  S
C2093      C2094   1.407       .  A
C2093      C2098   1.399       .  A
C2093      H2100   1.083       .  S
C2095      C2096   1.397       .  A
C2095      F2102   1.358       .  S
C2096      H2101   1.083       .  S
C2097      C2098   1.411       .  A
C2098      F2099   1.358       .  S
C2103      C2108   1.398       .  A
C2103      H2110   1.083       .  S
C2104      C2105   1.407       .  A
C2105      C2106   1.394       .  A
C2105      F2112   1.358       .  S
C2106      H2111   1.084       .  S
C2107      C2108   1.408   1_455  A
C2108      F2109   1.357       .  S
C2113      C2114   1.405       .  A
C2113      C2118   1.393       .  A
C2113      H2120   1.083       .  S
C2115      C2116   1.400       .  A
C2115      F2122   1.357       .  S
C2116      H2121   1.083   1_655  S
C2117      C2118   1.411       .  A
C2118      F2119   1.358       .  S
C2123      C2128   1.398       .  A
C2123      H2130   1.083       .  S
C2124      C2125   1.410   1_655  A
C2125      C2126   1.392       .  A
C2125      F2132   1.358       .  S
C2126      H2131   1.083       .  S
C2127      C2128   1.409       .  A
C2128      F2129   1.357       .  S
C2133      C2134   1.404   1_455  A
C2133      C2138   1.393       .  A
C2133      H2140   1.083       .  S
C2135      C2136   1.399       .  A
C2135      F2142   1.357       .  S
C2136      H2141   1.083       .  S
C2137      C2138   1.411   1_655  A
C2138      F2139   1.358       .  S
O2143     Zr2155   2.437       .  S
O2143      C2145   1.288       .  A
O2144      C2145   1.286       .  A
C2145      C2403   1.484       .  S
O2146     Zr2158   2.442       .  S
O2146      C2148   1.290       .  A
O2147      C2148   1.286       .  A
C2148      C2413   1.487       .  S
O2149     Zr2158   2.445   1_655  S
O2149      C2151   1.290       .  A
O2150     Zr2181   2.414       .  S
C2151      C2440   1.480       .  S
O2152     Zr2155   2.434       .  S
O2152      C2154   1.288       .  A
O2153     Zr2182   2.429   1_655  S
C2154      C2373   1.491       .  S
Zr2155     O2156   2.432       .  S
Zr2155     O2161   2.368       .  S
Zr2155     O2162   2.366       .  S
O2156      H2199   0.990       .  S
O2157      H2198   0.990       .  S
O2157      H2202   0.990       .  S
Zr2158     O2159   2.437   1_455  S
Zr2158     O2162   2.371   1_455  S
Zr2158     O2161   2.368   1_455  S
O2159      H2200   0.990       .  S
O2159      H2203   0.990       .  S
O2160      H2193   0.990       .  S
O2162      H2189   0.966       .  S
O2163     Zr2175   2.435       .  S
O2163      C2165   1.287       .  A
O2164     Zr2182   2.419       .  S
C2165      C2423   1.484       .  S
O2166     Zr2178   2.431       .  S
O2166      C2168   1.286   1_545  A
O2167     Zr2181   2.429       .  S
C2168      C2390   1.487       .  S
O2169     Zr2178   2.439       .  S
O2169      C2171   1.289       .  A
O2170      C2171   1.285       .  A
C2171      C2383   1.483       .  S
O2172     Zr2175   2.431       .  S
O2172      C2174   1.287       .  A
O2173      C2174   1.284       .  A
C2174      C2433   1.482       .  S
Zr2175     O2176   2.436       .  S
Zr2175     O2183   2.365       .  S
Zr2175     O2184   2.367       .  S
O2176      H2196   0.990       .  S
O2176      H2201   0.990       .  S
O2177      H2197   0.990       .  S
Zr2178     O2179   2.434   1_545  S
Zr2178     O2184   2.368   1_545  S
Zr2178     O2183   2.366   1_545  S
O2179      H2195   0.990       .  S
O2180      H2194   0.990       .  S
O2180      H2204   0.990       .  S
Zr2181     O2186   2.382       .  S
Zr2182     O2185   2.379   1_455  S
O2183      H2191   0.966       .  S
O2186      H2190   0.966       .  S
O2187      H2192   0.964       .  S
O2205     Zr2217   2.434   1_655  S
O2205      C2207   1.287   1_655  A
O2206     Zr2243   2.425       .  S
C2207      C2443   1.481   1_455  S
O2208     Zr2220   2.438       .  S
O2208      C2210   1.289       .  A
O2209     Zr2244   2.424   1_655  S
O2209      C2210   1.286       .  A
C2210      C2330   1.488       .  S
O2211     Zr2220   2.434       .  S
O2211      C2213   1.288       .  A
O2212      C2213   1.287       .  A
C2213      C2343   1.487       .  S
O2214     Zr2217   2.436       .  S
O2214      C2216   1.288       .  A
O2215     Zr2244   2.414       .  S
O2215      C2216   1.285       .  A
C2216      C2430   1.482       .  S
Zr2217     O2218   2.438   1_455  S
Zr2217     O2223   2.370   1_455  S
Zr2217     O2224   2.370   1_455  S
O2218      H2261   0.990       .  S
O2219      H2260   0.990       .  S
O2219      H2264   0.990       .  S
Zr2220     O2221   2.437       .  S
Zr2220     O2224   2.371       .  S
Zr2220     O2223   2.369       .  S
O2221      H2262   0.990       .  S
O2221      H2265   0.990       .  S
O2222      H2255   0.990       .  S
O2224     Zr2244   2.387   1_655  S
O2224      H2251   0.966       .  S
O2225      C2227   1.288       .  A
C2227      C2350   1.488       .  S
O2228     Zr2240   2.432       .  S
O2228      C2230   1.287       .  A
O2229      C2230   1.285       .  A
C2230      C2410   1.482       .  S
O2231     Zr2240   2.433       .  S
O2231      C2233   1.287       .  A
C2233      C2420   1.485       .  S
O2234     Zr2237   2.438       .  S
O2235     Zr2243   2.423       .  S
C2236      C2360   1.489       .  S
Zr2237     O2239   2.431       .  S
Zr2237     O2249   2.366       .  S
Zr2237     O2247   2.370       .  S
O2238      H2258   0.990       .  S
O2238      H2263   0.990       .  S
O2239      H2259   0.990       .  S
Zr2240     O2241   2.433       .  S
Zr2240     O2246   2.366       .  S
Zr2240     O2245   2.367       .  S
O2241      H2257   0.990       .  S
O2242      H2256   0.990       .  S
O2242      H2266   0.990       .  S
Zr2243     O2249   2.383       .  S
O2245      H2253   0.962       .  S
O2248      H2252   0.964       .  S
O2249      H2254   0.966       .  S
O2267     Zr2279   2.441       .  S
O2267      C2269   1.288       .  A
O2268      C2269   1.289       .  A
C2269      C2340   1.492       .  S
O2270     Zr2282   2.434       .  S
O2271     Zr2306   2.422       .  S
O2271      C2272   1.286       .  A
C2272      C2393   1.482       .  S
O2273     Zr2282   2.438       .  S
O2274     Zr2305   2.429       .  S
C2275      C2400   1.485       .  S
O2276     Zr2279   2.438       .  S
O2276      C2278   1.288       .  A
O2277     Zr2306   2.426       .  S
O2277      C2278   1.287       .  A
C2278      C2363   1.488       .  S
Zr2279     O2280   2.435       .  S
Zr2279     O2285   2.372       .  S
Zr2279     O2286   2.368       .  S
O2280      H2323   0.990       .  S
O2281      H2322   0.990       .  S
O2281      H2326   0.990       .  S
Zr2282     O2284   2.434       .  S
Zr2282     O2310   2.368       .  S
Zr2282     O2312   2.370       .  S
O2283      H2324   0.990       .  S
O2283      H2327   0.990       .  S
O2284      H2317   0.990       .  S
O2286     Zr2306   2.385       .  S
O2286      H2313   0.967       .  S
O2287     Zr2299   2.429       .  S
C2289      C2380   1.482       .  S
O2290     Zr2302   2.440       .  S
O2291     Zr2305   2.429       .  S
C2292      C2333   1.483   1_554  S
O2293     Zr2302   2.435       .  S
C2295      C2353   1.486       .  S
O2296     Zr2299   2.438       .  S
O2297      C2298   1.287       .  A
C2298      C2370   1.485       .  S
Zr2299     O2301   2.437       .  S
Zr2299     O2311   2.366       .  S
Zr2299     O2309   2.369       .  S
O2300      H2320   0.990       .  S
O2300      H2325   0.990       .  S
O2301      H2321   0.990       .  S
Zr2302     O2304   2.437       .  S
Zr2302     O2312   2.373       .  S
Zr2302     O2310   2.368       .  S
O2303      H2319   0.990       .  S
O2304      H2318   0.990       .  S
O2304      H2328   0.990       .  S
Zr2305     O2310   2.380       .  S
O2307      H2315   0.967       .  S
O2310      H2314   0.966       .  S
O2311      H2316   0.965       .  S
C2329      C2330   1.405       .  A
C2329      C2334   1.394       .  A
C2329      H2336   1.083       .  S
C2331      C2332   1.400       .  A
C2331      F2338   1.358       .  S
C2332      C2333   1.408       .  A
C2332      H2337   1.083       .  S
C2334      F2335   1.357       .  S
C2339      C2340   1.408       .  A
C2339      C2344   1.402       .  A
C2339      H2346   1.083       .  S
C2340      C2341   1.412       .  A
C2341      C2342   1.394       .  A
C2341      F2348   1.357       .  S
C2342      C2343   1.405       .  A
C2342      H2347   1.083       .  S
C2343      C2344   1.411       .  A
C2344      F2345   1.358       .  S
C2349      C2350   1.407       .  A
C2349      C2354   1.394       .  A
C2349      H2356   1.083       .  S
C2351      C2352   1.400       .  A
C2351      F2358   1.357       .  S
C2352      H2357   1.083       .  S
C2353      C2354   1.410       .  A
C2354      F2355   1.358   1_554  S
C2359      C2360   1.407   1_556  A
C2359      H2366   1.083       .  S
C2361      C2362   1.401       .  A
C2361      F2368   1.357       .  S
C2362      C2363   1.408       .  A
C2362      H2367   1.083       .  S
C2363      C2364   1.410       .  A
C2364      F2365   1.358       .  S
C2369      C2370   1.406   1_545  A
C2369      C2374   1.399       .  A
C2369      H2376   1.083       .  S
C2371      C2372   1.397       .  A
C2371      F2378   1.358       .  S
C2372      C2373   1.407       .  A
C2372      H2377   1.083       .  S
C2374      F2375   1.357       .  S
C2379      C2380   1.405       .  A
C2379      C2384   1.398       .  A
C2379      H2386   1.083       .  S
C2381      C2382   1.394       .  A
C2381      F2388   1.358       .  S
C2382      H2387   1.083       .  S
C2383      C2384   1.411   1_545  A
C2384      F2385   1.357       .  S
C2389      C2390   1.407   1_545  A
C2389      H2396   1.083       .  S
C2390      C2391   1.412       .  A
C2391      F2398   1.358       .  S
C2392      C2393   1.405       .  A
C2392      H2397   1.083       .  S
C2393      C2394   1.409       .  A
C2394      F2395   1.357       .  S
C2399      C2400   1.406       .  A
C2399      C2404   1.399       .  A
C2399      H2406   1.083       .  S
C2401      C2402   1.394       .  A
C2401      F2408   1.357       .  S
C2402      H2407   1.083       .  S
C2403      C2404   1.410       .  A
C2404      F2405   1.357       .  S
C2409      C2414   1.400       .  A
C2409      H2416   1.083       .  S
C2410      C2411   1.409       .  A
C2411      C2412   1.391       .  A
C2411      F2418   1.358       .  S
C2412      H2417   1.083       .  S
C2413      C2414   1.412       .  A
C2414      F2415   1.358       .  S
C2419      C2420   1.406       .  A
C2419      C2424   1.392       .  A
C2419      H2426   1.083       .  S
C2421      C2422   1.398       .  A
C2421      F2428   1.357       .  S
C2422      H2427   1.083       .  S
C2423      C2424   1.409       .  A
C2424      F2425   1.358       .  S
C2429      C2434   1.398       .  A
C2429      H2436   1.083       .  S
C2430      C2431   1.408       .  A
C2431      C2432   1.393       .  A
C2431      F2438   1.357       .  S
C2432      H2437   1.083       .  S
C2433      C2434   1.410       .  A
C2434      F2435   1.358       .  S
C2439      C2440   1.403       .  A
C2439      C2444   1.392       .  A
C2439      H2446   1.083       .  S
C2441      C2442   1.399       .  A
C2441      F2448   1.358       .  S
C2442      H2447   1.083       .  S
C2443      C2444   1.409       .  A
C2444      F2445   1.357       .  S
