geometry optimzed in LAMMPS
_audit_creation_date              2020-11-30 
_audit_creation_method            'lammps2cif' 
_symmetry_space_group_name_H-M    'P1' 
_symmetry_Int_Tables_number       1 
_symmetry_cell_setting            triclinic 
loop_ 
_symmetry_equiv_pos_as_xyz 
  x,y,z 
_cell_length_a                    41.65782637 
_cell_length_b                    41.77100099988227 
_cell_length_c                    25.942682811243536 
_cell_angle_alpha                 89.96474626960364 
_cell_angle_beta                  90.15572589795504 
_cell_angle_gamma                 90.04050867130151 
loop_ 
_atom_site_label 
_atom_site_type_symbol 
_atom_site_fract_x 
_atom_site_fract_y 
_atom_site_fract_z 
_atom_site_charge 
C1          C  0.86040536  0.36441278  0.05950582     0.30600
C2          C  0.85510303  0.36253421  0.95367486     0.30600
C3          C  0.82725014  0.37287856  0.03722555    -0.05600
C4          C  0.88170837  0.38853420  0.02926348    -0.06400
C5          C  0.86831501  0.33240264  0.03358707    -0.06300
C6          C  0.82414571  0.37200846  0.98348753    -0.05700
C7          C  0.87876370  0.38737722  0.97551447    -0.06400
C8          C  0.86543040  0.33139672  0.98038743    -0.06300
C9          C  0.79571121  0.38803042  0.97241394    -0.31700
N10         N  0.78135752  0.39673594  0.01719887     0.14800
C11         C  0.80065964  0.38810055  0.05683378    -0.31700
H12         H  0.79616433  0.39362860  0.09693550     0.16700
C13         C  0.89563585  0.41285736  0.95538391    -0.30700
N14         N  0.90918056  0.42919461  0.99492923     0.13500
C15         C  0.89967361  0.41569127  0.03988338    -0.30700
C16         C  0.87514245  0.30136683  0.96479582    -0.31000
N17         N  0.88347141  0.28403168  0.00715278     0.14000
H18         H  0.87707013  0.29307056  0.92541615     0.16700
C19         C  0.87971704  0.30295900  0.04934283    -0.31000
H20         H  0.88546601  0.29600834  0.08849327     0.16700
H21         H  0.90461113  0.42617895  0.07711185     0.16700
H22         H  0.78648505  0.39445048  0.93485224     0.16700
H23         H  0.89751827  0.41943933  0.91514560     0.16700
C24         C  0.85462675  0.37023442  0.45363049     0.30600
C25         C  0.85349673  0.36827281  0.55975702     0.30600
C26         C  0.86150806  0.33743427  0.47866210    -0.05600
C27         C  0.87784947  0.39285230  0.48165329    -0.06400
C28         C  0.82202231  0.37882835  0.47924210    -0.06300
C29         C  0.86235938  0.33676183  0.53224956    -0.05700
C30         C  0.87809120  0.39168861  0.53536105    -0.06400
C31         C  0.82207833  0.37818300  0.53313774    -0.06300
C32         C  0.87274461  0.30658996  0.54638357    -0.31700
N33         N  0.87637164  0.28852645  0.50324596     0.14800
C34         C  0.86948494  0.30715010  0.46177449    -0.31700
H35         H  0.87192884  0.29976240  0.42209621     0.16700
C36         C  0.90264552  0.41201816  0.55095924    -0.30700
N37         N  0.91524923  0.42663943  0.50875131     0.13500
C38         C  0.90059266  0.41469264  0.46627207    -0.30700
C39         C  0.79214351  0.38733030  0.54990676    -0.31000
N40         N  0.77354009  0.39322280  0.50811945     0.14000
H41         H  0.78456155  0.38999598  0.58956144     0.16700
C42         C  0.79091171  0.38700485  0.46501414    -0.31000
H43         H  0.78090408  0.38818865  0.42664189     0.16700
H44         H  0.90629955  0.42125664  0.42696544     0.16700
H45         H  0.87786322  0.29846082  0.58515092     0.16700
H46         H  0.91147646  0.41567675  0.58972106     0.16700
C47         C  0.37128649  0.13778683  0.06915044     0.30600
C48         C  0.37082375  0.14207393  0.96316267     0.30600
C49         C  0.38183539  0.17017546  0.04646681    -0.05600
C50         C  0.39458933  0.11492630  0.04035496    -0.06400
C51         C  0.33912014  0.13121223  0.04210019    -0.06300
C52         C  0.38053326  0.17314169  0.99273793    -0.05700
C53         C  0.39388235  0.11744425  0.98663054    -0.06400
C54         C  0.33864895  0.13411420  0.98885087    -0.06300
C55         C  0.38806736  0.20491421  0.98249325    -0.31700
N56         N  0.39654712  0.21967431  0.02703158     0.14800
C57         C  0.39255711  0.19885099  0.06644943    -0.31700
H58         H  0.39705173  0.20426527  0.10661869     0.16700
C59         C  0.41679752  0.09731182  0.96682542    -0.30700
N60         N  0.43139548  0.08214231  0.00653636     0.13500
C61         C  0.41925112  0.09358591  0.05137284    -0.30700
C62         C  0.30763966  0.12803461  0.97292592    -0.31000
N63         N  0.28946394  0.12137367  0.01500120     0.14000
H64         H  0.29897160  0.12788148  0.93357225     0.16700
C65         C  0.30858059  0.12287095  0.05739831    -0.31000
H66         H  0.30078234  0.11830339  0.09647673     0.16700
H67         H  0.42888692  0.08715041  0.08859720     0.16700
H68         H  0.38677142  0.21744758  0.94617048     0.16700
H69         H  0.42243643  0.09382706  0.92649804     0.16700
C70         C  0.36998045  0.14382692  0.56916829     0.30600
C71         C  0.36767242  0.14577137  0.46318780     0.30600
C72         C  0.37881779  0.17602578  0.54404690    -0.05600
C73         C  0.39232610  0.12000611  0.54053454    -0.06400
C74         C  0.33741700  0.13560295  0.54425062    -0.06300
C75         C  0.37704405  0.17755098  0.49031811    -0.05700
C76         C  0.39152176  0.12205138  0.48695214    -0.06400
C77         C  0.33590008  0.13782566  0.49082371    -0.06300
C78         C  0.38328243  0.20916269  0.47739233    -0.31700
N79         N  0.39098810  0.22569309  0.52082244     0.14800
C80         C  0.38772673  0.20583778  0.56183583    -0.31700
H81         H  0.39163657  0.21259322  0.60163978     0.16700
C82         C  0.41252055  0.09978392  0.46740169    -0.30700
N83         N  0.42491473  0.08279670  0.50718585     0.13500
C84         C  0.41240766  0.09439283  0.55169259    -0.30700
C85         C  0.30471663  0.13086470  0.47674085    -0.31000
N86         N  0.28786485  0.12276407  0.51956378     0.14000
H87         H  0.29507924  0.13087720  0.43797638     0.16700
C88         C  0.30756780  0.12584345  0.56106275    -0.31000
H89         H  0.30060382  0.12196147  0.60063431     0.16700
H90         H  0.41714223  0.08373660  0.58886487     0.16700
H91         H  0.38203353  0.21995070  0.43956801     0.16700
H92         H  0.41820334  0.09605271  0.42715427     0.16700
C93         C  0.65813225  0.85214494  0.03984979     0.30600
C94         C  0.65836519  0.85271580  0.93370144     0.30600
C95         C  0.65134450  0.81975097  0.01347570    -0.05600
C96         C  0.63436918  0.87500581  0.01334645    -0.06400
C97         C  0.69047057  0.86109821  0.01403507    -0.06300
C98         C  0.65000019  0.82016601  0.95962232    -0.05700
C99         C  0.63387163  0.87490383  0.95976692    -0.06400
C100        C  0.69007499  0.86167693  0.96030925    -0.06300
C101        C  0.63673774  0.79102563  0.94521553    -0.31700
N102        N  0.63347769  0.77230387  0.98758015     0.14800
C103        C  0.64251346  0.78949925  0.02943546    -0.31700
H104        H  0.64098637  0.78104701  0.06875135     0.16700
C105        C  0.61078221  0.89670663  0.94461900    -0.30700
N106        N  0.59846106  0.91078170  0.98746209     0.13500
C107        C  0.61234033  0.89734826  0.02958223    -0.30700
C108        C  0.72020229  0.87036445  0.94371377    -0.31000
N109        N  0.73949062  0.87398078  0.98546884     0.14000
H110        H  0.72736431  0.87452699  0.90418459     0.16700
C111        C  0.72185002  0.86780225  0.02834080    -0.31000
H112        H  0.73178332  0.86793944  0.06684321     0.16700
H113        H  0.60715146  0.90379833  0.06908516     0.16700
H114        H  0.62827201  0.78418919  0.90735322     0.16700
H115        H  0.60391998  0.90251272  0.90546129     0.16700
C116        C  0.65570817  0.85743958  0.54024661     0.30600
C117        C  0.65287530  0.85650410  0.43440567     0.30600
C118        C  0.65032749  0.82473530  0.51523060    -0.05600
C119        C  0.62874199  0.87790483  0.51578567    -0.06400
C120        C  0.68520282  0.87103996  0.51183520    -0.06300
C121        C  0.64882831  0.82423449  0.46194768    -0.05700
C122        C  0.62728966  0.87774822  0.46151681    -0.06400
C123        C  0.68387420  0.87031545  0.45816738    -0.06300
C124        C  0.63818434  0.79422080  0.44778727    -0.31700
N125        N  0.63351838  0.77643801  0.49104561     0.14800
C126        C  0.64025706  0.79517265  0.53251110    -0.31700
H127        H  0.63605325  0.78850123  0.57224597     0.16700
C128        C  0.61075229  0.90537537  0.44771368    -0.30700
N129        N  0.60081340  0.92063107  0.49076148     0.13500
C130        C  0.61275907  0.90504195  0.53211624    -0.30700
C131        C  0.71148990  0.88477123  0.44029824    -0.31000
N132        N  0.72926069  0.89438153  0.48145881     0.14000
H133        H  0.71807538  0.88839183  0.40040652     0.16700
C134        C  0.71335336  0.88637401  0.52524087    -0.31000
H135        H  0.72170016  0.89150440  0.56389088     0.16700
H136        H  0.61114856  0.91412421  0.57103777     0.16700
H137        H  0.63242471  0.78650543  0.40902773     0.16700
H138        H  0.60729653  0.91501736  0.40945717     0.16700
C139        C  0.14228013  0.64812078  0.93058074     0.30600
C140        C  0.14367325  0.64987648  0.03650790     0.30600
C141        C  0.14201119  0.68167636  0.95529183    -0.05600
C142        C  0.11380928  0.63127254  0.95870720    -0.06400
C143        C  0.17116350  0.63170348  0.95650374    -0.06300
C144        C  0.14269157  0.68284250  0.00935489    -0.05700
C145        C  0.11405257  0.63374102  0.01243615    -0.06400
C146        C  0.17194759  0.63317202  0.00992947    -0.06300
C147        C  0.12907128  0.71200619  0.02255131    -0.31700
N148        N  0.12217376  0.72877433  0.97912036     0.14800
C149        C  0.12948255  0.71033112  0.93797958    -0.31700
H150        H  0.12351479  0.71622458  0.89845798     0.16700
C151        C  0.08741969  0.61797065  0.03101972    -0.30700
N152        N  0.07201705  0.60405722  0.99087411     0.13500
C153        C  0.08864747  0.61062905  0.94723591    -0.30700
C154        C  0.20064554  0.62014859  0.02592069    -0.31000
N155        N  0.21737691  0.61086588  0.98369961     0.14000
H156        H  0.20936281  0.61874345  0.06520316     0.16700
C157        C  0.19937995  0.61712087  0.94110814    -0.31000
H158        H  0.20705017  0.61292548  0.90189360     0.16700
H159        H  0.08356704  0.59905337  0.91091673     0.16700
H160        H  0.12233759  0.71964978  0.06085707     0.16700
H161        H  0.08043792  0.61559297  0.07098057     0.16700
C162        C  0.14231112  0.65721773  0.53599903     0.30600
C163        C  0.14225053  0.65427660  0.42991726     0.30600
C164        C  0.17529357  0.65308219  0.51023787    -0.05600
C165        C  0.12168874  0.63103737  0.51129581    -0.06400
C166        C  0.13021002  0.68778090  0.50769511    -0.06300
C167        C  0.17540832  0.65186598  0.45659072    -0.05700
C168        C  0.12187167  0.62926323  0.45803027    -0.06400
C169        C  0.12986533  0.68611603  0.45350615    -0.06300
C170        C  0.20699680  0.64792114  0.44181967    -0.31700
N171        N  0.22568366  0.64552941  0.48468171     0.14800
C172        C  0.20656383  0.64917294  0.52657769    -0.31700
H173        H  0.21464891  0.64738176  0.56614138     0.16700
C174        C  0.10126928  0.60484823  0.44419214    -0.30700
N175        N  0.08895466  0.59170011  0.48782547     0.13500
C176        C  0.10077232  0.60802652  0.52894078    -0.30700
C177        C  0.12210706  0.71640915  0.43555371    -0.31000
N178        N  0.11699379  0.73580054  0.47651006     0.14000
H179        H  0.12108066  0.72439462  0.39595387     0.16700
C180        C  0.12370743  0.71934843  0.52014124    -0.31000
H181        H  0.12499890  0.73068179  0.55747563     0.16700
H182        H  0.09433560  0.60365198  0.56872348     0.16700
H183        H  0.21577525  0.64572266  0.40281525     0.16700
H184        H  0.09542592  0.59737851  0.40533545     0.16700
O185        O  0.02738225  0.96854458  0.94529454    -0.71200
O186        O  0.99280504  0.05282794  0.95289753    -0.71500
O187        O  0.05218348  0.02775390  0.95158882    -0.71300
O188        O  0.96779812  0.99330269  0.94642398    -0.71300
O189        O  0.96846905  0.98745709  0.02963364    -0.71300
O190        O  0.05044145  0.02730169  0.03529933    -0.71300
O191        O  0.98946358  0.04845214  0.03615606    -0.71200
O192        O  0.02943085  0.96657212  0.02886004    -0.71400
V193        V  0.00996529  0.01057675  0.95064507     1.35200
V194        V  0.00941799  0.00752788  0.03089736     1.35200
C195        C  0.03516935  0.95353466  0.98584035     0.78000
C196        C  0.98530907  0.06503590  0.99585549     0.78100
C197        C  0.06565740  0.03339167  0.99434522     0.77900
C198        C  0.95400737  0.98392304  0.98709205     0.77900
O199        O  0.98433503  0.05477613  0.52769278    -0.71200
O200        O  0.02725339  0.97425114  0.52289328    -0.71500
O201        O  0.04587538  0.03571858  0.52923323    -0.71300
O202        O  0.96552883  0.99311166  0.52196941    -0.71300
O203        O  0.96578238  0.99735577  0.43857088    -0.71300
O204        O  0.04833554  0.03676127  0.44562989    -0.71300
O205        O  0.02671507  0.97618838  0.43922985    -0.71200
O206        O  0.98733350  0.05817786  0.44435865    -0.71400
V207        V  0.00573219  0.01451337  0.52380525     1.35200
V208        V  0.00699103  0.01709961  0.44353653     1.35200
C209        C  0.97936465  0.07064888  0.48684316     0.78000
C210        C  0.03419918  0.96147073  0.48011565     0.78100
C211        C  0.06095022  0.04329562  0.48883929     0.77900
C212        C  0.95196400  0.98777534  0.47919340     0.77900
O213        O  0.54072027  0.48925034  0.07018406    -0.71200
O214        O  0.45522586  0.52133019  0.05934435    -0.71500
O215        O  0.48159314  0.46301820  0.07132777    -0.71300
O216        O  0.51447294  0.54776251  0.05856233    -0.71300
O217        O  0.51830211  0.54136076  0.97580695    -0.71300
O218        O  0.48096767  0.45860459  0.98787361    -0.71300
O219        O  0.45810732  0.51795181  0.97598089    -0.71200
O220        O  0.54123168  0.48161163  0.98737679    -0.71400
V221        V  0.49804537  0.50529488  0.06330919     1.35200
V222        V  0.49968686  0.50002861  0.98341193     1.35200
C223        C  0.55514981  0.47911626  0.03054029     0.78000
C224        C  0.44196786  0.52469897  0.01567354     0.78100
C225        C  0.47484974  0.44675577  0.03163748     0.77900
C226        C  0.52221102  0.55897698  0.01500311     0.77900
O227        O  0.47194878  0.46685341  0.47961481    -0.71200
O228        O  0.51588460  0.54659948  0.46979289    -0.71500
O229        O  0.53384874  0.48474072  0.47644038    -0.71300
O230        O  0.45405643  0.52866191  0.47265411    -0.71300
O231        O  0.45288311  0.52913242  0.55637780    -0.71300
O232        O  0.53615865  0.49134983  0.55937543    -0.71300
O233        O  0.51330074  0.55170095  0.55299007    -0.71200
O234        O  0.47576011  0.46889259  0.56306820    -0.71400
V235        V  0.49394957  0.50676789  0.47622030     1.35200
V236        V  0.49453066  0.51021545  0.55639792     1.35200
C237        C  0.46686990  0.45402293  0.52305109     0.78000
C238        C  0.52106458  0.56325618  0.50969164     0.78100
C239        C  0.54872279  0.48064178  0.51847742     0.77900
C240        C  0.43957864  0.53584973  0.51380117     0.77900
C241        C  0.35194306  0.55905109  0.53383464    -0.21900
C242        C  0.34984260  0.58654617  0.50290942     0.10100
C243        C  0.37728859  0.59737837  0.47637632     0.10500
C244        C  0.40617729  0.58028549  0.48096282    -0.16800
C245        C  0.40833982  0.55262397  0.51158435    -0.27300
C246        C  0.38073838  0.54169289  0.53811891     0.18800
C247        C  0.31821545  0.60249116  0.49631645     0.12800
C248        C  0.37590520  0.62665737  0.44253853    -0.11600
H249        H  0.42728728  0.58859898  0.46056727     0.13000
C250        C  0.38014610  0.51109943  0.56900179    -0.22400
H251        H  0.33066936  0.55055255  0.55359169     0.08700
C252        C  0.29491811  0.59008506  0.46216058     0.05000
C253        C  0.26511131  0.60548139  0.45757035    -0.19700
C254        C  0.25802696  0.63321716  0.48596824    -0.12000
C255        C  0.28201163  0.64649035  0.51831570     0.13700
C256        C  0.31162406  0.63066780  0.52370338    -0.22400
C257        C  0.30152710  0.56056067  0.43060139    -0.05500
H258        H  0.24679368  0.59525396  0.43285248     0.15300
C259        C  0.27753796  0.67773051  0.54628150    -0.15600
H260        H  0.32984997  0.64056669  0.54901012     0.09600
H261        H  0.36121452  0.49502324  0.55344247     0.07400
H262        H  0.37455235  0.51662360  0.60985559     0.08600
H263        H  0.40302983  0.49768414  0.56772539     0.07700
H264        H  0.36925084  0.64786325  0.46594142     0.02600
H265        H  0.35773572  0.62313953  0.41166099     0.03000
H266        H  0.39939273  0.63161996  0.42400502     0.06500
H267        H  0.28093748  0.55437810  0.40519045     0.05500
H268        H  0.30614017  0.53987702  0.45644343    -0.00200
H269        H  0.32286826  0.56462826  0.40588874     0.01200
H270        H  0.27807698  0.67350084  0.58852646     0.04900
H271        H  0.25476732  0.68986410  0.53600356     0.06800
H272        H  0.29733732  0.69433742  0.53595778     0.07700
C273        C  0.06833791  0.80994506  0.50102197    -0.21900
C274        C  0.08595988  0.83298418  0.47392686     0.10100
C275        C  0.11362289  0.82363619  0.44643181     0.10500
C276        C  0.12326594  0.79136204  0.44726213    -0.16800
C277        C  0.10570320  0.76832053  0.47466968    -0.27300
C278        C  0.07741160  0.77764617  0.50084444     0.18800
C279        C  0.07393698  0.86642474  0.47321113     0.12800
C280        C  0.13267166  0.84765226  0.41589784    -0.11600
H281        H  0.14471314  0.78403030  0.42690926     0.13000
C282        C  0.05540731  0.75404583  0.52695787    -0.22400
H283        H  0.04675428  0.81711245  0.52125440     0.08700
C284        C  0.04823684  0.87552432  0.44087360     0.05000
C285        C  0.03646752  0.90697428  0.44317750    -0.19700
C286        C  0.04954033  0.92952362  0.47748164    -0.12000
C287        C  0.07608621  0.92064059  0.50869123     0.13700
C288        C  0.08766876  0.88905803  0.50651535    -0.22400
C289        C  0.03312693  0.85194469  0.40416450    -0.05500
H290        H  0.01633290  0.91377523  0.41897852     0.15300
C291        C  0.09358824  0.94388115  0.54323277    -0.15600
H292        H  0.10766081  0.88203910  0.53087463     0.09600
H293        H  0.03071753  0.75679476  0.51130686     0.07400
H294        H  0.05495975  0.75883378  0.56904007     0.08600
H295        H  0.06238592  0.72879980  0.52061906     0.07700
H296        H  0.14202216  0.86657820  0.44194256     0.02600
H297        H  0.11707872  0.85878151  0.38610057     0.03000
H298        H  0.15339879  0.83632755  0.39619671     0.06500
H299        H  0.01361761  0.86308120  0.38106706     0.05500
H300        H  0.02268342  0.83161469  0.42601053    -0.00200
H301        H  0.05157252  0.84272873  0.37716801     0.01200
H302        H  0.09114767  0.93618856  0.58400576     0.04900
H303        H  0.08487935  0.96880656  0.53961424     0.06800
H304        H  0.11945792  0.94412350  0.53298526     0.07700
C305        C  0.16917372  0.66351153  0.78929249    -0.21900
C306        C  0.14278168  0.65198420  0.76164138     0.10100
C307        C  0.11594710  0.64026167  0.78830172     0.10500
C308        C  0.11585190  0.64113651  0.84218630    -0.16800
C309        C  0.14311653  0.65000412  0.87118196    -0.27300
C310        C  0.16967310  0.66325494  0.84348557     0.18800
C311        C  0.14291279  0.65387638  0.70475900     0.12800
C312        C  0.08740820  0.62644153  0.75999720    -0.11600
H313        H  0.09337170  0.63672587  0.86057846     0.13000
C314        C  0.19839535  0.67912742  0.86836989    -0.22400
H315        H  0.18934507  0.67347046  0.76831792     0.08700
C316        C  0.12684754  0.67859266  0.67849842     0.05000
C317        C  0.12530691  0.67785296  0.62459226    -0.19700
C318        C  0.14217603  0.65501820  0.59530285    -0.12000
C319        C  0.15655231  0.62889649  0.62265860     0.13700
C320        C  0.15722138  0.62922264  0.67676607    -0.22400
C321        C  0.11156669  0.70602221  0.70724393    -0.05500
H322        H  0.10912437  0.69423866  0.60630172     0.15300
C323        C  0.17000589  0.59913471  0.59761320    -0.15600
H324        H  0.16832580  0.60954043  0.69746862     0.09600
H325        H  0.20024962  0.70418443  0.85433482     0.07400
H326        H  0.22059467  0.66615863  0.85733420     0.08600
H327        H  0.19749194  0.68034945  0.91077501     0.07700
H328        H  0.09529971  0.60585791  0.73613227     0.02600
H329        H  0.07626032  0.64461561  0.73452866     0.03000
H330        H  0.06869206  0.61770267  0.78700118     0.06500
H331        H  0.10047910  0.72366171  0.68054547     0.05500
H332        H  0.13014551  0.71867333  0.73027759    -0.00200
H333        H  0.09260253  0.69724926  0.73356683     0.01200
H334        H  0.19584453  0.59673227  0.60748100     0.04900
H335        H  0.16760958  0.59841434  0.55530349     0.06800
H336        H  0.15712347  0.57781532  0.61266268     0.07700
C337        C  0.16247929  0.62737178  0.29106663    -0.21900
C338        C  0.14377062  0.64856236  0.26189584     0.10100
C339        C  0.11995225  0.66668623  0.28703435     0.10500
C340        C  0.11959528  0.66765209  0.34113336    -0.16800
C341        C  0.14168514  0.65003278  0.37103371    -0.27300
C342        C  0.15982381  0.62607419  0.34495817     0.18800
C343        C  0.14684577  0.64860729  0.20488641     0.12800
C344        C  0.09340568  0.68287711  0.25709381    -0.11600
H345        H  0.10062769  0.68077823  0.35985657     0.13000
C346        C  0.17435383  0.59716614  0.37105902    -0.22400
H347        H  0.17819736  0.61068222  0.27145279     0.08700
C348        C  0.15756160  0.67574864  0.17750981     0.05000
C349        C  0.15641329  0.67556051  0.12338066    -0.19700
C350        C  0.14630700  0.64834006  0.09556500    -0.12000
C351        C  0.14176440  0.61933807  0.12387465     0.13700
C352        C  0.14023385  0.62043798  0.17781191    -0.22400
C353        C  0.17221451  0.70402659  0.20511842    -0.05500
H354        H  0.16506203  0.69639061  0.10301901     0.15300
C355        C  0.13980910  0.58638866  0.10002108    -0.15600
H356        H  0.13450377  0.59882475  0.19910472     0.09600
H357        H  0.20066605  0.59660386  0.36458242     0.07400
H358        H  0.16384128  0.57515787  0.35391877     0.08600
H359        H  0.16954903  0.59591125  0.41286699     0.07700
H360        H  0.08007522  0.66466715  0.23435810     0.02600
H361        H  0.10301220  0.70111721  0.23031406     0.03000
H362        H  0.07605624  0.69497838  0.28300527     0.06500
H363        H  0.18028982  0.72277546  0.17767489     0.05500
H364        H  0.19344202  0.69592532  0.22755670    -0.00200
H365        H  0.15491898  0.71519169  0.23192862     0.01200
H366        H  0.14288695  0.58603238  0.05780643     0.04900
H367        H  0.15919552  0.57118078  0.11633368     0.06800
H368        H  0.11638701  0.57518066  0.10950584     0.07700
C369        C  0.30622533  0.60464901  0.00751717    -0.21900
C370        C  0.31250453  0.57344907  0.99052198     0.10100
C371        C  0.28731650  0.55505610  0.96904054     0.10500
C372        C  0.25622167  0.56813237  0.96615682    -0.16800
C373        C  0.24985649  0.59915697  0.98410215    -0.27300
C374        C  0.27538177  0.61792712  0.00380652     0.18800
C375        C  0.34563893  0.56063971  0.99595963     0.12800
C376        C  0.29333777  0.52181063  0.94885865    -0.11600
H377        H  0.23663155  0.55400367  0.95065288     0.13000
C378        C  0.27115139  0.65232796  0.01978109    -0.22400
H379        H  0.32566257  0.61888674  0.02336868     0.08700
C380        C  0.37063472  0.57040010  0.96287117     0.05000
C381        C  0.40173922  0.55828035  0.97055185    -0.19700
C382        C  0.40850355  0.53639011  0.01030972    -0.12000
C383        C  0.38306005  0.52571304  0.04227946     0.13700
C384        C  0.35218165  0.53858445  0.03535090    -0.22400
C385        C  0.36438965  0.59323752  0.91901836    -0.05500
H386        H  0.42098384  0.56609343  0.94545412     0.15300
C387        C  0.38679769  0.49965188  0.08212369    -0.15600
H388        H  0.33281278  0.53081737  0.06025203     0.09600
H389        H  0.28831699  0.66757431  0.99813762     0.07400
H390        H  0.27612701  0.65475653  0.06166085     0.08600
H391        H  0.24680550  0.66170483  0.01165988     0.07700
H392        H  0.30196626  0.50610884  0.98050285     0.02600
H393        H  0.31175061  0.52270655  0.91801892     0.03000
H394        H  0.27119544  0.51097648  0.93248130     0.06500
H395        H  0.38642012  0.59781487  0.89613484     0.05500
H396        H  0.35576507  0.61651030  0.93420431    -0.00200
H397        H  0.34591571  0.58300569  0.89284395     0.01200
H398        H  0.38232606  0.50964274  0.12109071     0.04900
H399        H  0.41063940  0.48805836  0.08186305     0.06800
H400        H  0.36896074  0.48044625  0.07444501     0.07700
C401        C  0.06783308  0.79961336  0.00030837    -0.21900
C402        C  0.08543945  0.82409048  0.97642401     0.10100
C403        C  0.11455783  0.81654906  0.95148507     0.10500
C404        C  0.12569952  0.78478140  0.95191312    -0.16800
C405        C  0.10847061  0.76039279  0.97679150    -0.27300
C406        C  0.07872028  0.76777068  0.00013832     0.18800
C407        C  0.07284297  0.85740339  0.97774336     0.12800
C408        C  0.13379050  0.84201962  0.92441250    -0.11600
H409        H  0.14831025  0.77892641  0.93364750     0.13000
C410        C  0.05736428  0.74255364  0.02345470    -0.22400
H411        H  0.04520632  0.80535265  0.01867910     0.08700
C412        C  0.04839764  0.86767396  0.94382455     0.05000
C413        C  0.03722035  0.89938459  0.94664433    -0.19700
C414        C  0.04976425  0.92113641  0.98282227    -0.12000
C415        C  0.07505989  0.91099428  0.01577370     0.13700
C416        C  0.08584122  0.87914141  0.01326396    -0.22400
C417        C  0.03414159  0.84513592  0.90466650    -0.05500
H418        H  0.01804872  0.90704598  0.92113997     0.15300
C419        C  0.09233709  0.93314262  0.05244836    -0.15600
H420        H  0.10498412  0.87129736  0.03871484     0.09600
H421        H  0.03323708  0.74377733  0.00524947     0.07400
H422        H  0.05489517  0.74692447  0.06546187     0.08600
H423        H  0.06641428  0.71791804  0.01748301     0.07700
H424        H  0.14135030  0.86064649  0.95242780     0.02600
H425        H  0.11896408  0.85326001  0.89372803     0.03000
H426        H  0.15571049  0.83200115  0.90626104     0.06500
H427        H  0.01555554  0.85706874  0.88065197     0.05500
H428        H  0.02274244  0.82453606  0.92454106    -0.00200
H429        H  0.05328931  0.83619085  0.87871213     0.01200
H430        H  0.08791263  0.92537614  0.09274718     0.04900
H431        H  0.08526216  0.95853168  0.04833265     0.06800
H432        H  0.11854227  0.93210120  0.04484423     0.07700
C433        C  0.61393026  0.69080805  0.52537634    -0.21900
C434        C  0.58560748  0.68603676  0.49705310     0.10100
C435        C  0.57359645  0.71108337  0.46599502     0.10500
C436        C  0.59004783  0.74042620  0.46432822    -0.17600
C437        C  0.61838373  0.74537413  0.49273123    -0.27300
C438        C  0.63077135  0.71995134  0.52302070     0.18800
C439        C  0.56916780  0.65446877  0.49975354     0.12800
C440        C  0.54358144  0.70674172  0.43425503    -0.11600
H441        H  0.58054371  0.75985891  0.44121805     0.13000
C442        C  0.66223707  0.72213932  0.55155705    -0.22400
H443        H  0.62330604  0.67139025  0.54872922     0.08700
C444        C  0.58037159  0.62777771  0.47173935     0.05000
C445        C  0.56377682  0.59852509  0.47498435    -0.19700
C446        C  0.53629782  0.59525174  0.50581890    -0.12000
C447        C  0.52457587  0.62235754  0.53276727     0.13700
C448        C  0.54147501  0.65143245  0.52993293    -0.22400
C449        C  0.60973340  0.63024743  0.43822206    -0.05500
H450        H  0.57263950  0.57791004  0.45403411     0.15300
C451        C  0.49367414  0.62213724  0.56295326    -0.15600
H452        H  0.53263286  0.67213120  0.55071534     0.09600
H453        H  0.67803040  0.70209433  0.53953227     0.07400
H454        H  0.65788867  0.72028339  0.59365930     0.08600
H455        H  0.67550208  0.74456113  0.54363238     0.07700
H456        H  0.52290630  0.70159818  0.45984987     0.02600
H457        H  0.54682708  0.68650985  0.40702639     0.03000
H458        H  0.53781471  0.72852005  0.41146121     0.06500
H459        H  0.61495375  0.60731109  0.41830660     0.05500
H460        H  0.63093394  0.63659365  0.46212760    -0.00200
H461        H  0.60601933  0.64900011  0.40844888     0.01200
H462        H  0.49891326  0.62664132  0.60430031     0.04900
H463        H  0.48008580  0.59946766  0.55952729     0.06800
H464        H  0.47769414  0.64141935  0.54838209     0.07700
C465        C  0.79949026  0.94996304  0.50071902    -0.21900
C466        C  0.82418333  0.93262747  0.47693941     0.10100
C467        C  0.81711840  0.90286215  0.45372226     0.10500
C468        C  0.78553121  0.89104791  0.45512269    -0.16800
C469        C  0.76084353  0.90828793  0.47912766    -0.27300
C470        C  0.76782207  0.93837749  0.50152355     0.18800
C471        C  0.85714079  0.94632805  0.47609347     0.12800
C472        C  0.84281879  0.88377683  0.42699885    -0.11600
H473        H  0.78000596  0.86804335  0.43795230     0.13000
C474        C  0.74230092  0.95935928  0.52476326    -0.22400
H475        H  0.80488919  0.97296400  0.51806790     0.08700
C476        C  0.86557551  0.97123197  0.44190274     0.05000
C477        C  0.89699924  0.98353043  0.44269465    -0.19700
C478        C  0.92025202  0.97158508  0.47699596    -0.12000
C479        C  0.91202316  0.94567902  0.50988851     0.13700
C480        C  0.88043015  0.93387150  0.50960543    -0.22400
C481        C  0.84140656  0.98478272  0.40454070    -0.05500
H482        H  0.90321593  0.00315885  0.41724740     0.15300
C483        C  0.93596705  0.92884778  0.54419698    -0.15600
H484        H  0.87401418  0.91436152  0.53519100     0.09600
H485        H  0.74249652  0.98305921  0.50534141     0.07400
H486        H  0.74731134  0.96282752  0.56644001     0.08600
H487        H  0.71780500  0.94940664  0.52034349     0.07700
H488        H  0.86192974  0.87716985  0.45491690     0.02600
H489        H  0.85344627  0.89823945  0.39542411     0.03000
H490        H  0.83308998  0.86135513  0.41005079     0.06500
H491        H  0.85207910  0.00370806  0.37984282     0.05500
H492        H  0.82104467  0.99550163  0.42593825    -0.00200
H493        H  0.83224981  0.96544243  0.37909066     0.01200
H494        H  0.92950948  0.93271787  0.58521410     0.04900
H495        H  0.96103911  0.93667184  0.53802914     0.06800
H496        H  0.93538024  0.90275162  0.53603961     0.07700
C497        C  0.68681539  0.84548860  0.67947381    -0.21900
C498        C  0.66037633  0.85550444  0.70836564     0.10100
C499        C  0.63162519  0.86362010  0.68299920     0.10500
C500        C  0.63051717  0.86296101  0.62905117    -0.16800
C501        C  0.65774770  0.85543901  0.59921965    -0.27300
C502        C  0.68526997  0.84338759  0.62559954     0.18800
C503        C  0.66230513  0.85460481  0.76529199     0.12800
C504        C  0.60181247  0.87209888  0.71286036    -0.11600
H505        H  0.60763410  0.86697595  0.61059828     0.13000
C506        C  0.71266704  0.82612450  0.59969785    -0.22400
H507        H  0.70841761  0.83781831  0.69935519     0.08700
C508        C  0.66359336  0.82543228  0.79228421     0.05000
C509        C  0.66416592  0.82584272  0.84617771    -0.19700
C510        C  0.66093033  0.85440751  0.87459125    -0.12000
C511        C  0.66368280  0.88381545  0.84679538     0.13700
C512        C  0.66328865  0.88339320  0.79268020    -0.22400
C513        C  0.66380711  0.79371124  0.76449589    -0.05500
H514        H  0.66877674  0.80355121  0.86548965     0.15300
C515        C  0.66894586  0.91610709  0.87143348    -0.15600
H516        H  0.66421872  0.90578431  0.77152495     0.09600
H517        H  0.71547481  0.80207127  0.61741961     0.07400
H518        H  0.73532941  0.83966263  0.60551031     0.08600
H519        H  0.70902307  0.82202387  0.55805986     0.07700
H520        H  0.60619400  0.89385061  0.73638806     0.02600
H521        H  0.59516052  0.85194107  0.73863915     0.03000
H522        H  0.58112331  0.87707374  0.68697879     0.06500
H523        H  0.66325571  0.77322504  0.79179910     0.05500
H524        H  0.68583755  0.79139490  0.74091716    -0.00200
H525        H  0.64237194  0.79188096  0.73912935     0.01200
H526        H  0.69161506  0.92660682  0.85659305     0.04900
H527        H  0.67125204  0.91540619  0.91377864     0.06800
H528        H  0.64888809  0.93232792  0.86090808     0.07700
C529        C  0.67634119  0.83708678  0.29324588    -0.21900
C530        C  0.65148627  0.85186623  0.26571849     0.10100
C531        C  0.62568372  0.86549084  0.29298570     0.10500
C532        C  0.62575358  0.86439980  0.34695172    -0.16800
C533        C  0.65234564  0.85315056  0.37531499    -0.27300
C534        C  0.67716593  0.83725788  0.34740373     0.18800
C535        C  0.65300154  0.85272694  0.20849512     0.12800
C536        C  0.59843087  0.88221839  0.26561225    -0.11600
H537        H  0.60413276  0.87145963  0.36636000     0.13000
C538        C  0.70462649  0.81930125  0.37221748    -0.22400
H539        H  0.69545241  0.82536256  0.27214427     0.08700
C540        C  0.67610158  0.87131108  0.18251011     0.05000
C541        C  0.67651921  0.87144346  0.12842868    -0.19700
C542        C  0.65491641  0.85297574  0.09897049    -0.12000
C543        C  0.62856703  0.83880286  0.12576472     0.13700
C544        C  0.62948058  0.83675749  0.17972691    -0.22400
C545        C  0.69956198  0.89204878  0.21168993    -0.05500
H546        H  0.69256973  0.88785232  0.10960079     0.15300
C547        C  0.59768695  0.82798193  0.10046755    -0.15600
H548        H  0.61070703  0.82377003  0.19967921     0.09600
H549        H  0.72773989  0.83045134  0.36076387     0.07400
H550        H  0.70438359  0.79409998  0.35860398     0.08600
H551        H  0.70378325  0.81843893  0.41467208     0.07700
H552        H  0.58439260  0.86497548  0.24222192     0.02600
H553        H  0.60811860  0.90131980  0.24023492     0.03000
H554        H  0.58161496  0.89361444  0.29322237     0.06500
H555        H  0.71506580  0.90615327  0.18531666     0.05500
H556        H  0.71547723  0.87698741  0.23596182    -0.00200
H557        H  0.68628225  0.90908114  0.23660590     0.01200
H558        H  0.59364211  0.80213393  0.10802459     0.04900
H559        H  0.59671171  0.83221997  0.05849971     0.06800
H560        H  0.57734139  0.84154967  0.11732962     0.07700
C561        C  0.54485579  0.64679293  0.03621743    -0.21900
C562        C  0.56942220  0.65055492  0.99986735     0.10100
C563        C  0.57739897  0.62468609  0.96741461     0.10500
C564        C  0.56117459  0.59539891  0.97296388    -0.16800
C565        C  0.53676923  0.59132696  0.00975022    -0.27300
C566        C  0.52780557  0.61786535  0.04071085     0.18800
C567        C  0.58586921  0.68205259  0.99548836     0.12800
C568        C  0.60271293  0.62810242  0.92640799    -0.11600
H569        H  0.56791724  0.57537598  0.94875000     0.13000
C570        C  0.49945885  0.61748427  0.07675600    -0.22400
H571        H  0.53834523  0.66693136  0.06037803     0.08700
C572        C  0.57063928  0.70869913  0.97248270     0.05000
C573        C  0.58706693  0.73802909  0.96954176    -0.19700
C574        C  0.61839671  0.74131603  0.98883305    -0.12000
C575        C  0.63403407  0.71435015  0.01021133     0.13700
C576        C  0.61740038  0.68518365  0.01398329    -0.22400
C577        C  0.53723239  0.70609074  0.95051318    -0.05500
H578        H  0.57530702  0.75872128  0.95282575     0.15300
C579        C  0.66852857  0.71526506  0.02765133    -0.15600
H580        H  0.62925836  0.66458953  0.03091214     0.09600
H581        H  0.48331166  0.63781980  0.06727074     0.07400
H582        H  0.50793426  0.62022665  0.11711972     0.08600
H583        H  0.48468547  0.59556244  0.07375965     0.07700
H584        H  0.62627774  0.63355434  0.94440485     0.02600
H585        H  0.59605825  0.64778947  0.89966193     0.03000
H586        H  0.60536950  0.60582693  0.90345798     0.06500
H587        H  0.52927045  0.72894205  0.93270247     0.05500
H588        H  0.51998343  0.69989009  0.98146642    -0.00200
H589        H  0.53661777  0.68722136  0.92039548     0.01200
H590        H  0.66986472  0.71028788  0.06963875     0.04900
H591        H  0.68031301  0.73854936  0.01993012     0.06800
H592        H  0.68235879  0.69665532  0.00673532     0.07700
C593        C  0.86726700  0.96281830  0.95433599    -0.21900
C594        C  0.86354524  0.93427873  0.98211871     0.10100
C595        C  0.88942773  0.92229062  0.01143820     0.10500
C596        C  0.91848811  0.93930288  0.01263220    -0.16800
C597        C  0.92231454  0.96800122  0.98504859    -0.27300
C598        C  0.89618486  0.98011544  0.95587466     0.18800
C599        C  0.83161042  0.91861113  0.98319776     0.12800
C600        C  0.88621477  0.89170784  0.04179210    -0.11600
H601        H  0.93848021  0.92998408  0.03487675     0.13000
C602        C  0.89713726  0.01185046  0.92815854    -0.22400
H603        H  0.84707377  0.97219657  0.93261250     0.08700
C604        C  0.80783329  0.92871304  0.01814156     0.05000
C605        C  0.77803012  0.91311760  0.01867528    -0.19700
C606        C  0.77137922  0.88744903  0.98534081    -0.12000
C607        C  0.79565068  0.87675506  0.95122827     0.13700
C608        C  0.82529722  0.89285740  0.95005326    -0.22400
C609        C  0.81396606  0.95597648  0.05488410    -0.05500
H610        H  0.75947741  0.92138715  0.04464162     0.15300
C611        C  0.79174774  0.84776803  0.91728014    -0.15600
H612        H  0.84388828  0.88483626  0.92390346     0.09600
H613        H  0.87708701  0.02710961  0.94190178     0.07400
H614        H  0.89424337  0.00789424  0.88608775     0.08600
H615        H  0.91954482  0.02547467  0.93487389     0.07700
H616        H  0.88057602  0.87159032  0.01532123     0.02600
H617        H  0.86661981  0.89411157  0.07044837     0.03000
H618        H  0.90868671  0.88576231  0.06284252     0.06500
H619        H  0.79290847  0.96065581  0.07993731     0.05500
H620        H  0.81922980  0.97816182  0.03289151    -0.00200
H621        H  0.83476557  0.95019714  0.08005986     0.01200
H622        H  0.79213218  0.85519008  0.87618182     0.04900
H623        H  0.76935650  0.83433082  0.92492741     0.06800
H624        H  0.81190966  0.83093694  0.92436821     0.07700
C625        C  0.47458355  0.01229452  0.46445119    -0.21900
C626        C  0.50159455  0.01567429  0.49636148     0.10100
C627        C  0.50273208  0.04076631  0.53262896     0.10500
C628        C  0.47701681  0.06232141  0.53555645    -0.16800
C629        C  0.44987218  0.05906266  0.50376346    -0.27300
C630        C  0.44833190  0.03321383  0.46850929     0.18800
C631        C  0.52716857  0.99107519  0.49450869     0.12800
C632        C  0.53083191  0.04441243  0.56882671    -0.11600
H633        H  0.47809523  0.08202756  0.56264745     0.13000
C634        C  0.41885807  0.02583710  0.43689597    -0.22400
H635        H  0.47346298  0.99241204  0.43764231     0.08700
C636        C  0.52345002  0.96164034  0.52044648     0.05000
C637        C  0.54844721  0.93926224  0.51929393    -0.19700
C638        C  0.57712224  0.94556809  0.49294527    -0.12000
C639        C  0.58118729  0.97534880  0.46788353     0.13700
C640        C  0.55595162  0.99768646  0.46854908    -0.22400
C641        C  0.49320346  0.95397227  0.54971451    -0.05500
H642        H  0.54553014  0.91637614  0.53841450     0.15300
C643        C  0.61210042  0.98468399  0.44198843    -0.15600
H644        H  0.55892515  0.02060105  0.44949894     0.09600
H645        H  0.41153229  0.00060970  0.44361467     0.07400
H646        H  0.42426572  0.02905560  0.39533319     0.08600
H647        H  0.39800129  0.04088138  0.44722306     0.07700
H648        H  0.55315969  0.04830282  0.54642726     0.02600
H649        H  0.53345614  0.02244013  0.59257908     0.03000
H650        H  0.52767983  0.06505722  0.59529171     0.06500
H651        H  0.49449565  0.93009194  0.56845639     0.05500
H652        H  0.47234258  0.95393796  0.52301383    -0.00200
H653        H  0.48930621  0.97218431  0.58021639     0.01200
H654        H  0.60774675  0.98853808  0.40020827     0.04900
H655        H  0.63117513  0.96643206  0.44663467     0.06800
H656        H  0.62121297  0.00728336  0.45918491     0.07700
C657        C  0.43591446  0.30251754  0.49615283    -0.21900
C658        C  0.41928642  0.32390212  0.52791939     0.10100
C659        C  0.39341077  0.31263563  0.55790529     0.10500
C660        C  0.38463192  0.28013026  0.55514999    -0.16800
C661        C  0.40117538  0.25866581  0.52310454    -0.27300
C662        C  0.42762861  0.26996558  0.49403733     0.18800
C663        C  0.43008624  0.35778972  0.52989459     0.12800
C664        C  0.37526345  0.33491473  0.59287743    -0.11600
H665        H  0.36461137  0.27137422  0.57771931     0.13000
C666        C  0.44865937  0.24826107  0.46235547    -0.22400
H667        H  0.45610468  0.31117507  0.47379992     0.08700
C668        C  0.45608893  0.36733437  0.56131177     0.05000
C669        C  0.46676694  0.39923604  0.55958644    -0.19700
C670        C  0.45213898  0.42182115  0.52697030    -0.12000
C671        C  0.42504662  0.41254340  0.49736257     0.13700
C672        C  0.41470388  0.38051205  0.49867137    -0.22400
C673        C  0.47273416  0.34373965  0.59622490    -0.05500
H674        H  0.48731182  0.40634532  0.58264407     0.15300
C675        C  0.40574724  0.43582731  0.46545970    -0.15600
H676        H  0.39437204  0.37320414  0.47527508     0.09600
H677        H  0.47407608  0.25137415  0.47438870     0.07400
H678        H  0.44639214  0.25464732  0.42095691     0.08600
H679        H  0.44296467  0.22257139  0.46719275     0.07700
H680        H  0.36420273  0.35442471  0.56982863     0.02600
H681        H  0.39192206  0.34549341  0.62168989     0.03000
H682        H  0.35585397  0.32225437  0.61394635     0.06500
H683        H  0.49243937  0.35516361  0.61853426     0.05500
H684        H  0.48319420  0.32404273  0.57300895    -0.00200
H685        H  0.45522536  0.33358495  0.62398582     0.01200
H686        H  0.40737943  0.42921645  0.42411064     0.04900
H687        H  0.41355956  0.46100140  0.47010289     0.06800
H688        H  0.38019803  0.43476728  0.47747423     0.07700
C689        C  0.13231459  0.09325236  0.53363334    -0.21900
C690        C  0.15698645  0.08014476  0.50374208     0.10100
C691        C  0.14967128  0.05623864  0.46712072     0.10500
C692        C  0.11783690  0.04559959  0.46176135    -0.16800
C693        C  0.09314393  0.05819076  0.49238364    -0.27300
C694        C  0.10039047  0.08295110  0.52796717     0.18800
C695        C  0.19021917  0.09239205  0.51026122     0.12800
C696        C  0.17550172  0.04195296  0.43377728    -0.11600
H697        H  0.11234805  0.02668498  0.43452766     0.13000
C698        C  0.07510997  0.09996803  0.55914792    -0.22400
H699        H  0.13795759  0.11203280  0.56104576     0.08700
C700        C  0.20018255  0.12118224  0.48679397     0.05000
C701        C  0.23223848  0.13109906  0.49188084    -0.19700
C702        C  0.25467996  0.11288772  0.51974060    -0.12000
C703        C  0.24460224  0.08399298  0.54339817     0.13700
C704        C  0.21240291  0.07425904  0.53860417    -0.22400
C705        C  0.17717309  0.14095342  0.45521465    -0.05500
H706        H  0.24007834  0.15300614  0.47340145     0.15300
C707        C  0.26786912  0.06239059  0.57117023    -0.15600
H708        H  0.20456433  0.05203318  0.55613424     0.09600
H709        H  0.07684913  0.12614704  0.55215212     0.07400
H710        H  0.07913232  0.09529301  0.60079920     0.08600
H711        H  0.05030594  0.09281427  0.54893201     0.07700
H712        H  0.19380850  0.03003641  0.45831083     0.02600
H713        H  0.18718332  0.06110175  0.41078408     0.03000
H714        H  0.16565134  0.02384374  0.40667662     0.06500
H715        H  0.18899851  0.16247668  0.43874448     0.05500
H716        H  0.15695877  0.14907611  0.47971374    -0.00200
H717        H  0.16759743  0.12638104  0.42285057     0.01200
H718        H  0.27648453  0.07393104  0.60705026     0.04900
H719        H  0.28852896  0.05680630  0.54576412     0.06800
H720        H  0.25646547  0.03939231  0.58244628     0.07700
C721        C  0.47463810  0.00658612  0.96968306    -0.21900
C722        C  0.50363675  0.01034473  0.99641011     0.10100
C723        C  0.50892716  0.03826388  0.02593268     0.10500
C724        C  0.48479613  0.06167469  0.02841020    -0.16800
C725        C  0.45554438  0.05773121  0.00222187    -0.27300
C726        C  0.45022777  0.02955044  0.97305687     0.18800
C727        C  0.52768509  0.98425319  0.99403928     0.12800
C728        C  0.53973713  0.04308262  0.05546891    -0.11600
H729        H  0.48865328  0.08321008  0.05086138     0.13000
C730        C  0.41866241  0.02197871  0.94727003    -0.22400
H731        H  0.47063315  0.98501520  0.94731535     0.08700
C732        C  0.52339088  0.95529940  0.02132252     0.05000
C733        C  0.54695443  0.93137287  0.01806165    -0.19700
C734        C  0.57487751  0.93590707  0.98881984    -0.12000
C735        C  0.57955031  0.96537386  0.96287376     0.13700
C736        C  0.55546904  0.98878461  0.96465873    -0.22400
C737        C  0.49431401  0.94991977  0.05465078    -0.05500
H738        H  0.54373778  0.90897698  0.03851975     0.15300
C739        C  0.61029054  0.97378192  0.93569671    -0.15600
H740        H  0.55885290  0.01121976  0.94431977     0.09600
H741        H  0.41026893  0.99800291  0.95995887     0.07400
H742        H  0.42187997  0.02168570  0.90480340     0.08600
H743        H  0.39934693  0.03902822  0.95709428     0.07700
H744        H  0.56032972  0.04381874  0.02845583     0.02600
H745        H  0.54318376  0.02310485  0.08318492     0.03000
H746        H  0.53958904  0.06587562  0.07749687     0.06500
H747        H  0.49519779  0.92632731  0.07437768     0.05500
H748        H  0.47220425  0.95062234  0.03073922    -0.00200
H749        H  0.49301111  0.96884951  0.08460637     0.01200
H750        H  0.60572805  0.97615728  0.89368857     0.04900
H751        H  0.62949062  0.95598761  0.94222354     0.06800
H752        H  0.61950386  0.99695185  0.95064815     0.07700
C753        C  0.34519849  0.15867369  0.71100921    -0.21900
C754        C  0.36899540  0.14180719  0.73752818     0.10100
C755        C  0.39484525  0.12858677  0.71014953     0.10500
C756        C  0.39549553  0.13134114  0.65638851    -0.16800
C757        C  0.36999440  0.14514243  0.62842262    -0.27300
C758        C  0.34595265  0.16173038  0.65715641     0.18800
C759        C  0.36890103  0.14209007  0.79443223     0.12800
C760        C  0.42218835  0.11225516  0.73783876    -0.11600
H761        H  0.41716546  0.12445314  0.63709145     0.13000
C762        C  0.32170994  0.18449758  0.63397593    -0.22400
H763        H  0.32658017  0.17070680  0.73279322     0.08700
C764        C  0.38352036  0.16720143  0.82169472     0.05000
C765        C  0.38546461  0.16551236  0.87542277    -0.19700
C766        C  0.37068321  0.14087552  0.90378233    -0.12000
C767        C  0.35823303  0.11420574  0.87531449     0.13700
C768        C  0.35688462  0.11569638  0.82123585    -0.22400
C769        C  0.39769533  0.19560890  0.79393196    -0.05500
H770        H  0.40069289  0.18251209  0.89413145     0.15300
C771        C  0.34769697  0.08285434  0.89902501    -0.15600
H772        H  0.34717718  0.09566187  0.79963150     0.09600
H773        H  0.32459281  0.20843150  0.65204017     0.07400
H774        H  0.29703121  0.17577813  0.64192293     0.08600
H775        H  0.32420918  0.18810022  0.59205771     0.07700
H776        H  0.41290392  0.09154824  0.76014003     0.02600
H777        H  0.43404653  0.12928189  0.76464285     0.03000
H778        H  0.44058623  0.10323126  0.71056504     0.06500
H779        H  0.40827799  0.21322877  0.82116352     0.05500
H780        H  0.37865209  0.20797772  0.77149533    -0.00200
H781        H  0.41686542  0.18761912  0.76726895     0.01200
H782        H  0.32197647  0.07853664  0.89009020     0.04900
H783        H  0.35094279  0.08137310  0.94114576     0.06800
H784        H  0.36200485  0.06304552  0.88216441     0.07700
C785        C  0.35072573  0.16098081  0.20982798    -0.21900
C786        C  0.36714626  0.13750856  0.23768543     0.10100
C787        C  0.38190519  0.11210715  0.21106914     0.10500
C788        C  0.38111496  0.11178841  0.15703931    -0.16800
C789        C  0.36805850  0.13723612  0.12824244    -0.27300
C790        C  0.35027142  0.16098944  0.15579054     0.18800
C791        C  0.36777383  0.13977115  0.29469864     0.12800
C792        C  0.39913307  0.08558507  0.23931303    -0.11600
H793        H  0.38943395  0.09062867  0.13805337     0.13000
C794        C  0.32951378  0.18642295  0.13100452    -0.22400
H795        H  0.33791792  0.17950522  0.23063091     0.08700
C796        C  0.38566809  0.16359622  0.32026383     0.05000
C797        C  0.38528620  0.16487597  0.37431194    -0.19700
C798        C  0.36725012  0.14312357  0.40405614    -0.12000
C799        C  0.35309573  0.11655360  0.37759806     0.13700
C800        C  0.35151194  0.11675460  0.32365886    -0.22400
C801        C  0.40619327  0.18693717  0.29063545    -0.05500
H802        H  0.40107590  0.18167587  0.39289040     0.15300
C803        C  0.34174871  0.08603693  0.40312809    -0.15600
H804        H  0.33880481  0.09769755  0.30386488     0.09600
H805        H  0.33865638  0.21050722  0.14168936     0.07400
H806        H  0.30455767  0.18403846  0.14547453     0.08600
H807        H  0.32808112  0.18518788  0.08863049     0.07700
H808        H  0.38201652  0.07164385  0.26305514     0.02600
H809        H  0.41805823  0.09589780  0.26455331     0.03000
H810        H  0.41084645  0.06864496  0.21227114     0.06500
H811        H  0.41963339  0.20327084  0.31668804     0.05500
H812        H  0.39095297  0.20188579  0.26507757    -0.00200
H813        H  0.42387961  0.17364099  0.26692077     0.01200
H814        H  0.31564232  0.08273756  0.39625271     0.04900
H815        H  0.34654530  0.08475418  0.44490670     0.06800
H816        H  0.35457366  0.06538396  0.38580999     0.07700
C817        C  0.42135173  0.37407694  0.01029367    -0.21900
C818        C  0.43735484  0.35091661  0.03983087     0.10100
C819        C  0.46443209  0.35990346  0.06935629     0.10500
C820        C  0.47561264  0.39164138  0.06714488    -0.16800
C821        C  0.46031307  0.41456964  0.03607657    -0.27300
C822        C  0.43217057  0.40591789  0.00862318     0.18800
C823        C  0.42628797  0.31711684  0.03751560     0.12800
C824        C  0.48146129  0.33598105  0.10319954    -0.11600
H825        H  0.49689286  0.39839548  0.08870311     0.13000
C826        C  0.41236335  0.42972424  0.97854044    -0.22400
H827        H  0.40027420  0.36723216  0.98827892     0.08700
C828        C  0.39891741  0.30635445  0.06450470     0.05000
C829        C  0.38989852  0.27395339  0.06122336    -0.19700
C830        C  0.40754113  0.25220694  0.03140747    -0.12000
C831        C  0.43530168  0.26293685  0.00521466     0.13700
C832        C  0.44400548  0.29532576  0.00801315    -0.22400
C833        C  0.37943312  0.32897291  0.09694640    -0.05500
H834        H  0.36874307  0.26552938  0.08133148     0.15300
C835        C  0.45694184  0.24073223  0.97557268    -0.15600
H836        H  0.46517531  0.30358752  0.98769243     0.09600
H837        H  0.38734455  0.42953038  0.99322545     0.07400
H838        H  0.41209985  0.42294708  0.93717326     0.08600
H839        H  0.42120691  0.45463659  0.98192869     0.07700
H840        H  0.49122508  0.31620201  0.07941564     0.02600
H841        H  0.46436385  0.32601063  0.13179638     0.03000
H842        H  0.50175425  0.34708688  0.12453667     0.06500
H843        H  0.35912070  0.31654493  0.11610804     0.05500
H844        H  0.36939044  0.34831810  0.07240752    -0.00200
H845        H  0.39490667  0.33970178  0.12727506     0.01200
H846        H  0.45687914  0.24757503  0.93421112     0.04900
H847        H  0.44989293  0.21525945  0.97885831     0.06800
H848        H  0.48181807  0.24274573  0.99074505     0.07700
C849        C  0.20144961  0.11563039  0.98291533    -0.21900
C850        C  0.19314266  0.08724901  0.00844619     0.10100
C851        C  0.21635302  0.07121755  0.03860235     0.10500
C852        C  0.24777671  0.08327309  0.04082018    -0.16800
C853        C  0.25639311  0.11132686  0.01439240    -0.27300
C854        C  0.23257641  0.12834222  0.98660012     0.18800
C855        C  0.15999897  0.07465861  0.00346651     0.12800
C856        C  0.20784127  0.04159425  0.06881526    -0.11600
H857        H  0.26592587  0.07049388  0.06260576     0.13000
C858        C  0.23868417  0.16057344  0.96246513    -0.22400
H859        H  0.18333707  0.12826737  0.96076221     0.08700
C860        C  0.13427816  0.08786779  0.03159598     0.05000
C861        C  0.10371050  0.07385914  0.02774760    -0.19700
C862        C  0.09835798  0.04690907  0.99656671    -0.12000
C863        C  0.12431295  0.03346257  0.96884239     0.13700
C864        C  0.15465291  0.04792343  0.97198725    -0.22400
C865        C  0.13925194  0.11629930  0.06639431    -0.05500
H866        H  0.08384021  0.08401388  0.04911471     0.15300
C867        C  0.12156810  0.00298872  0.93793473    -0.15600
H868        H  0.17461784  0.03761762  0.95101927     0.09600
H869        H  0.22062160  0.17796656  0.97672361     0.07400
H870        H  0.23648511  0.15870680  0.91991906     0.08600
H871        H  0.26254500  0.17054946  0.97231715     0.07700
H872        H  0.19993289  0.02230707  0.04226472     0.02600
H873        H  0.18814335  0.04712393  0.09615580     0.03000
H874        H  0.22862107  0.03251805  0.09138967     0.06500
H875        H  0.11673883  0.12323688  0.08631110     0.05500
H876        H  0.14757380  0.13714257  0.04348229    -0.00200
H877        H  0.15753046  0.11047969  0.09618335     0.01200
H878        H  0.12672479  0.00809942  0.89678096     0.04900
H879        H  0.09772149  0.99144352  0.94058778     0.06800
H880        H  0.13937432  0.98534310  0.95243018     0.07700
C881        C  0.96450532  0.50084698  0.53350228    -0.21900
C882        C  0.99097871  0.49525360  0.50155596     0.10100
C883        C  0.99251571  0.46673625  0.47259929     0.10500
C884        C  0.96750002  0.44432129  0.47642427    -0.16800
C885        C  0.94077629  0.44991179  0.50805480    -0.27300
C886        C  0.93902402  0.47887952  0.53633390     0.18800
C887        C  0.01619414  0.52018627  0.49729665     0.12800
C888        C  0.02028045  0.46028821  0.43702813    -0.11600
H889        H  0.96857710  0.42233592  0.45435217     0.13000
C890        C  0.91003604  0.48839324  0.56735522    -0.22400
H891        H  0.96320490  0.52307098  0.55498079     0.08700
C892        C  0.01271317  0.54643504  0.46347481     0.05000
C893        C  0.03731083  0.56935062  0.46035982    -0.19700
C894        C  0.06537755  0.56652802  0.49007129    -0.12000
C895        C  0.06922352  0.53960924  0.52277897     0.13700
C896        C  0.04430422  0.51709565  0.52662783    -0.22400
C897        C  0.98307131  0.55016240  0.43065287    -0.05500
H898        H  0.03448393  0.58990784  0.43527150     0.15300
C899        C  0.09970748  0.53308625  0.55235267    -0.15600
H900        H  0.04710125  0.49656717  0.55184614     0.09600
H901        H  0.90131930  0.51212085  0.55399588     0.07400
H902        H  0.91670856  0.49017433  0.60871499     0.08600
H903        H  0.88968317  0.47156298  0.56337886     0.07700
H904        H  0.04300800  0.45965364  0.45943749     0.02600
H905        H  0.02179470  0.47948713  0.40751185     0.03000
H906        H  0.01758166  0.43702247  0.41676355     0.06500
H907        H  0.98431729  0.57187863  0.40600889     0.05500
H908        H  0.96158634  0.55221971  0.45564405    -0.00200
H909        H  0.98032300  0.52901022  0.40511992     0.01200
H910        H  0.09491822  0.53455941  0.59436340     0.04900
H911        H  0.11941238  0.54975749  0.54249969     0.06800
H912        H  0.10841726  0.50863829  0.54311819     0.07700
C913        C  0.95820100  0.15819472  0.46036042    -0.21900
C914        C  0.93267077  0.16280307  0.49458039     0.10100
C915        C  0.92259958  0.13721334  0.52614345     0.10500
C916        C  0.93848590  0.10757419  0.52298597    -0.16800
C917        C  0.96422473  0.10283187  0.48885818    -0.27300
C918        C  0.97451445  0.12881315  0.45761489     0.18800
C919        C  0.91785534  0.19509503  0.49823746     0.12800
C920        C  0.89527193  0.14133011  0.56342651    -0.11600
H921        H  0.93055660  0.08787023  0.54700780     0.13000
C922        C  0.00350287  0.12738678  0.42294182    -0.22400
H923        H  0.96611531  0.17807735  0.43667043     0.08700
C924        C  0.93263789  0.21987892  0.52667456     0.05000
C925        C  0.91832733  0.25030246  0.52804844    -0.19700
C926        C  0.88958962  0.25662966  0.50156120    -0.12000
C927        C  0.87432145  0.23151692  0.47421201     0.13700
C928        C  0.88875899  0.20107820  0.47270366    -0.22400
C929        C  0.96340039  0.21411495  0.55586899    -0.05500
H930        H  0.92981675  0.26947956  0.54931570     0.15300
C931        C  0.84224890  0.23627437  0.44839754    -0.15600
H932        H  0.87734913  0.18181243  0.45149196     0.09600
H933        H  0.01999416  0.14742750  0.43258226     0.07400
H934        H  0.99579049  0.12991850  0.38214139     0.08600
H935        H  0.01768495  0.10518031  0.42707472     0.07700
H936        H  0.87302822  0.14763986  0.54207645     0.02600
H937        H  0.90104347  0.16073499  0.59118365     0.03000
H938        H  0.89060452  0.11907543  0.58563206     0.06500
H939        H  0.97146519  0.23587970  0.57680856     0.05500
H940        H  0.98269266  0.20704933  0.52874780    -0.00200
H941        H  0.95978552  0.19469702  0.58452608     0.01200
H942        H  0.84445593  0.25298817  0.41545897     0.04900
H943        H  0.82473097  0.24588340  0.47660811     0.06800
H944        H  0.83253035  0.21341206  0.43303383     0.07700
C945        C  0.70038764  0.44466947  0.48797989    -0.21900
C946        C  0.67690807  0.42685902  0.51395677     0.10100
C947        C  0.68561813  0.39785634  0.53826135     0.10500
C948        C  0.71758141  0.38717894  0.53550537    -0.16800
C949        C  0.74108632  0.40500362  0.50953486    -0.27300
C950        C  0.73250062  0.43454109  0.48653118     0.18800
C951        C  0.64372622  0.43983385  0.51711475     0.12800
C952        C  0.66137376  0.37861644  0.56809474    -0.11600
H953        H  0.72441725  0.36486375  0.55379242     0.13000
C954        C  0.75677072  0.45680310  0.46269955    -0.22400
H955        H  0.69378143  0.46721461  0.47012363     0.08700
C956        C  0.63619849  0.46568077  0.54997226     0.05000
C957        C  0.60474977  0.47781967  0.55066605    -0.19700
C958        C  0.58050201  0.46461674  0.51951741    -0.12000
C959        C  0.58770898  0.43748683  0.48874158     0.13700
C960        C  0.61938968  0.42596846  0.48709482    -0.22400
C961        C  0.66132050  0.48032695  0.58456492    -0.05500
H962        H  0.59924745  0.49825092  0.57481274     0.15300
C963        C  0.56257679  0.41907879  0.45905009    -0.15600
H964        H  0.62506671  0.40564966  0.46278666     0.09600
H965        H  0.75520839  0.48061060  0.48157441     0.07400
H966        H  0.75154377  0.45964732  0.42096748     0.08600
H967        H  0.78182712  0.44848347  0.46731911     0.07700
H968        H  0.64174912  0.37065578  0.54208304     0.02600
H969        H  0.65114510  0.39351287  0.59944686     0.03000
H970        H  0.67234362  0.35700416  0.58579540     0.06500
H971        H  0.65121630  0.49973535  0.60883773     0.05500
H972        H  0.68095001  0.49071001  0.56104695    -0.00200
H973        H  0.67135674  0.46168462  0.61052735     0.01200
H974        H  0.56742901  0.42098072  0.41710618     0.04900
H975        H  0.53777454  0.42723958  0.46668304     0.06800
H976        H  0.56356396  0.39345189  0.47040791     0.07700
C977        C  0.99477972  0.56082700  0.96187765    -0.21900
C978        C  0.99701514  0.53484532  0.99582814     0.10100
C979        C  0.02290475  0.53317394  0.03096565     0.10500
C980        C  0.04677035  0.55690474  0.02980347    -0.16800
C981        C  0.04526146  0.58232714  0.99447112    -0.27300
C982        C  0.01828501  0.58491543  0.96135911     0.18800
C983        C  0.97281896  0.50888563  0.99260945     0.12800
C984        C  0.02543400  0.50622296  0.06938060    -0.11600
H985        H  0.06726313  0.55511080  0.05541710     0.13000
C986        C  0.01307003  0.61310397  0.92608789    -0.22400
H987        H  0.97455184  0.56230619  0.93559903     0.08700
C988        C  0.94246989  0.51144538  0.01624980     0.05000
C989        C  0.92148022  0.48510795  0.01510811    -0.19700
C990        C  0.93020593  0.45636300  0.99092799    -0.12000
C991        C  0.96051601  0.45404784  0.96666294     0.13700
C992        C  0.98117203  0.48055282  0.96712033    -0.22400
C993        C  0.93261636  0.54163219  0.04361671    -0.05500
H994        H  0.89832858  0.48662651  0.03388984     0.15300
C995        C  0.97272580  0.42359818  0.94260416    -0.15600
H996        H  0.00458666  0.47869558  0.94917645     0.09600
H997        H  0.98914950  0.62375755  0.93385360     0.07400
H998        H  0.01384801  0.60503076  0.88534333     0.08600
H999        H  0.03099291  0.63237855  0.93170989     0.07700
H1000       H  0.02734727  0.48298644  0.04890731     0.02600
H1001       H  0.00378800  0.50594433  0.09426194     0.03000
H1002       H  0.04686934  0.50885231  0.09458691     0.06500
H1003       H  0.90823155  0.53948609  0.06049551     0.05500
H1004       H  0.93244410  0.56196155  0.01604386    -0.00200
H1005       H  0.94981086  0.54686260  0.07528889     0.01200
H1006       H  0.97621886  0.42730656  0.90060706     0.04900
H1007       H  0.95652829  0.40294879  0.94832522     0.06800
H1008       H  0.99613437  0.41709731  0.96030762     0.07700
C1009       C  0.83656762  0.33842156  0.69847782    -0.21900
C1010       C  0.84905911  0.36347093  0.72814647     0.10100
C1011       C  0.85946716  0.39161782  0.70325945     0.10500
C1012       C  0.85964207  0.39287930  0.64918591    -0.16800
C1013       C  0.85017871  0.36655438  0.61878031    -0.27300
C1014       C  0.83465402  0.34063300  0.64458808     0.18800
C1015       C  0.84992314  0.36038277  0.78519893     0.12800
C1016       C  0.86950352  0.42071414  0.73368790    -0.11600
H1017       H  0.86575224  0.41526239  0.63105691     0.13000
C1018       C  0.81373519  0.31602200  0.61819342    -0.22400
H1019       H  0.82709816  0.31738077  0.71763813     0.08700
C1020       C  0.82174581  0.35898644  0.81507122     0.05000
C1021       C  0.82428394  0.35749855  0.86894998    -0.19700
C1022       C  0.85408840  0.35967155  0.89453444    -0.12000
C1023       C  0.88237523  0.35737953  0.86376189     0.13700
C1024       C  0.87976401  0.35848346  0.80983594    -0.22400
C1025       C  0.78888877  0.35997141  0.79056948    -0.05500
H1026       H  0.80264807  0.35358998  0.89063264     0.15300
C1027       C  0.91585200  0.35285986  0.88503191    -0.15600
H1028       H  0.90135649  0.35777816  0.78658026     0.09600
H1029       H  0.78954077  0.31627163  0.63608258     0.07400
H1030       H  0.82413494  0.29176718  0.62335475     0.08600
H1031       H  0.80989012  0.32058446  0.57671344     0.07700
H1032       H  0.89094808  0.41517978  0.75749500     0.02600
H1033       H  0.84955912  0.42831618  0.75921137     0.03000
H1034       H  0.87570109  0.44115214  0.70816512     0.06500
H1035       H  0.76954970  0.36060266  0.81994788     0.05500
H1036       H  0.78493974  0.33843213  0.76645203    -0.00200
H1037       H  0.78660093  0.38176674  0.76631979     0.01200
H1038       H  0.92642680  0.33078747  0.86835943     0.04900
H1039       H  0.91700806  0.35009474  0.92727573     0.06800
H1040       H  0.93107200  0.37353064  0.87380261     0.07700
C1041       C  0.83963286  0.34971441  0.20311511    -0.21900
C1042       C  0.86372450  0.36717351  0.22814882     0.10100
C1043       C  0.88885706  0.38044357  0.19874053     0.10500
C1044       C  0.88836320  0.37702458  0.14493796    -0.16800
C1045       C  0.86222762  0.36300784  0.11878205    -0.27300
C1046       C  0.83878347  0.34678746  0.14922628     0.18800
C1047       C  0.86241732  0.37020707  0.28520841     0.12800
C1048       C  0.91584265  0.39901532  0.22356544    -0.11600
H1049       H  0.90930660  0.38438170  0.12390809     0.13000
C1050       C  0.81280810  0.32539378  0.12754605    -0.22400
H1051       H  0.82132527  0.33799207  0.22603376     0.08700
C1052       C  0.83814290  0.38797023  0.30984582     0.05000
C1053       C  0.83702976  0.38875043  0.36391920    -0.19700
C1054       C  0.85892000  0.37150146  0.39464128    -0.12000
C1055       C  0.88614366  0.35798863  0.36915313     0.13700
C1056       C  0.88625837  0.35572821  0.31521329    -0.22400
C1057       C  0.81387769  0.40687911  0.27919980    -0.05500
H1058       H  0.82000965  0.40453987  0.38165016     0.15300
C1059       C  0.91659146  0.34729755  0.39595000    -0.15600
H1060       H  0.90566334  0.34309255  0.29631423     0.09600
H1061       H  0.78888581  0.33573998  0.13629970     0.07400
H1062       H  0.81445966  0.30143602  0.14593570     0.08600
H1063       H  0.81444985  0.32133554  0.08562525     0.07700
H1064       H  0.93042098  0.38318312  0.24864514     0.02600
H1065       H  0.90585317  0.41892816  0.24686585     0.03000
H1066       H  0.93221044  0.40954682  0.19436911     0.06500
H1067       H  0.79737794  0.42051889  0.30457491     0.05500
H1068       H  0.79903180  0.39057149  0.25526786    -0.00200
H1069       H  0.82645637  0.42420065  0.25380676     0.01200
H1070       H  0.92100532  0.32154548  0.38814586     0.04900
H1071       H  0.91668729  0.35107526  0.43802797     0.06800
H1072       H  0.93715944  0.36119319  0.38044765     0.07700
C1073       C  0.89890486  0.19685364  0.97825392    -0.21900
C1074       C  0.92798570  0.19173283  0.00440821     0.10100
C1075       C  0.94206735  0.21736171  0.03200956     0.10500
C1076       C  0.92669304  0.24734278  0.03276311    -0.16800
C1077       C  0.89746512  0.25241626  0.00689156    -0.27300
C1078       C  0.88308417  0.22653707  0.98014654     0.18800
C1079       C  0.94274804  0.15917746  0.00328315     0.12800
C1080       C  0.97303070  0.21305739  0.06134302    -0.11600
H1081       H  0.93768978  0.26714755  0.05319397     0.13000
C1082       C  0.85045190  0.22879951  0.95526759    -0.22400
H1083       H  0.88802297  0.17723074  0.95715260     0.08700
C1084       C  0.92858503  0.13286488  0.02900844     0.05000
C1085       C  0.94330389  0.10258424  0.02651701    -0.19700
C1086       C  0.97184945  0.09785810  0.99889969    -0.12000
C1087       C  0.98657014  0.12444736  0.97453036     0.13700
C1088       C  0.97149315  0.15453840  0.97622342    -0.22400
C1089       C  0.89818262  0.13674060  0.05972535    -0.05500
H1090       H  0.93220116  0.08233342  0.04562256     0.15300
C1091       C  0.01880552  0.12246848  0.94838423    -0.15600
H1092       H  0.98251865  0.17470157  0.95676347     0.09600
H1093       H  0.83481712  0.20944094  0.97045674     0.07400
H1094       H  0.85278751  0.22584302  0.91291876     0.08600
H1095       H  0.83807692  0.25167732  0.96333891     0.07700
H1096       H  0.99274970  0.20699981  0.03442861     0.02600
H1097       H  0.97030550  0.19353509  0.09006381     0.03000
H1098       H  0.98002807  0.23519991  0.08224697     0.06500
H1099       H  0.89108272  0.11405823  0.07894510     0.05500
H1100       H  0.87814340  0.14405829  0.03408628    -0.00200
H1101       H  0.90175927  0.15520951  0.08996678     0.01200
H1102       H  0.01605661  0.12818233  0.90681362     0.04900
H1103       H  0.03035478  0.09871924  0.95207085     0.06800
H1104       H  0.03540593  0.14015762  0.96612021     0.07700
C1105       C  0.70819906  0.44886600  0.00102830    -0.21900
C1106       C  0.68574304  0.43202625  0.03082525     0.10100
C1107       C  0.69544218  0.40414013  0.05737116     0.10500
C1108       C  0.72724235  0.39346675  0.05279481    -0.16800
C1109       C  0.74965765  0.41000996  0.02248904    -0.27300
C1110       C  0.74019872  0.43851842  0.99719720     0.18800
C1111       C  0.65211373  0.44374970  0.03316994     0.12800
C1112       C  0.67235505  0.38580753  0.09088146    -0.11600
H1113       H  0.73467365  0.37174606  0.07231180     0.13000
C1114       C  0.76337988  0.45919638  0.96768347    -0.22400
H1115       H  0.70077082  0.47045496  0.98107507     0.08700
C1116       C  0.64349498  0.47087196  0.06249801     0.05000
C1117       C  0.61136430  0.48123472  0.06257101    -0.19700
C1118       C  0.58770910  0.46506983  0.03395102    -0.12000
C1119       C  0.59619209  0.43694964  0.00664078     0.13700
C1120       C  0.62836754  0.42708922  0.00581507    -0.22400
C1121       C  0.66817811  0.48878084  0.09372832    -0.05500
H1122       H  0.60485506  0.50256809  0.08388467     0.15300
C1123       C  0.57195003  0.41599022  0.97953436    -0.15600
H1124       H  0.63495714  0.40591833  0.98411422     0.09600
H1125       H  0.76290547  0.48388007  0.98354932     0.07400
H1126       H  0.75618841  0.46002700  0.92646667     0.08600
H1127       H  0.78849366  0.45068847  0.97039328     0.07700
H1128       H  0.65213327  0.37655866  0.06727981     0.02600
H1129       H  0.66281937  0.40177869  0.12141059     0.03000
H1130       H  0.68413088  0.36505558  0.10988455     0.06500
H1131       H  0.65730791  0.50899613  0.11529258     0.05500
H1132       H  0.68693108  0.49870177  0.06795019    -0.00200
H1133       H  0.67953266  0.47231167  0.12200512     0.01200
H1134       H  0.57672524  0.41606313  0.93745644     0.04900
H1135       H  0.54678549  0.42338066  0.98615805     0.06800
H1136       H  0.57412938  0.39107594  0.99411210     0.07700
loop_ 
_geom_bond_atom_site_label_1 
_geom_bond_atom_site_label_2 
_geom_bond_distance 
_geom_bond_site_symmetry_2 
_ccdc_geom_bond_type 
C1            C3   1.537       .  S
C1            C5   1.533       .  S
C1            C4   1.556       .  S
C1         C1045   1.541       .  S
C2            C6   1.557       .  S
C2            C8   1.535       .  S
C2            C7   1.538       .  S
C2         C1022   1.539       .  S
C3           C11   1.376       .  A
C3            C6   1.400   1_554  A
C4           C15   1.386       .  A
C4            C7   1.400   1_554  A
C5           C19   1.380       .  A
C5            C8   1.386   1_554  A
C6            C9   1.390       .  A
C7           C13   1.378       .  A
C8           C16   1.379       .  A
C9           N10   1.358   1_556  A
C9           H22   1.080       .  S
N10          C11   1.353       .  A
N10        C1109   1.440       .  S
C11          H12   1.083       .  S
C13          N14   1.354       .  A
C13          H23   1.082       .  S
N14          C15   1.355   1_556  A
N14         C990   1.437       .  S
C15          H21   1.080       .  S
C16          N17   1.360   1_556  A
C16          H18   1.082       .  S
N17          C19   1.360       .  A
N17        C1077   1.444       .  S
C19          H20   1.082       .  S
C24          C26   1.543       .  S
C24          C28   1.556       .  S
C24          C27   1.534       .  S
C24        C1054   1.542       .  S
C25          C29   1.543       .  S
C25          C31   1.535       .  S
C25          C30   1.552       .  S
C25        C1013   1.539       .  S
C26          C34   1.380       .  A
C26          C29   1.391       .  A
C27          C38   1.375       .  A
C27          C30   1.394       .  A
C28          C42   1.389       .  A
C28          C31   1.398       .  A
C29          C32   1.382       .  A
C30          C36   1.389       .  A
C31          C39   1.376       .  A
C32          N33   1.359       .  A
C32          H45   1.082       .  S
N33          C34   1.357       .  A
N33         C926   1.443       .  S
C34          H35   1.080       .  S
C36          N37   1.360       .  A
C36          H46   1.081       .  S
N37          C38   1.354       .  A
N37         C885   1.440       .  S
C38          H44   1.083       .  S
C39          N40   1.353       .  A
C39          H41   1.083       .  S
N40          C42   1.359       .  A
N40         C949   1.440       .  S
C42          H43   1.079       .  S
C47          C49   1.539       .  S
C47          C51   1.536       .  S
C47          C50   1.555       .  S
C47         C789   1.539       .  S
C48          C52   1.561       .  S
C48          C54   1.535       .  S
C48          C53   1.533       .  S
C48         C766   1.541       .  S
C49          C57   1.379       .  A
C49          C52   1.400   1_554  A
C50          C61   1.390       .  A
C50          C53   1.398   1_554  A
C51          C65   1.378       .  A
C51          C54   1.387   1_554  A
C52          C55   1.389       .  A
C53          C59   1.374       .  A
C54          C62   1.379       .  A
C55          N56   1.356   1_556  A
C55          H68   1.079       .  S
N56          C57   1.353       .  A
N56         C830   1.438       .  S
C57          H58   1.082       .  S
C59          N60   1.352   1_556  A
C59          H69   1.083       .  S
N60          C61   1.357       .  A
N60         C725   1.438       .  S
C61          H67   1.079       .  S
C62          N63   1.359   1_556  A
C62          H64   1.082       .  S
N63          C65   1.358       .  A
N63         C853   1.440       .  S
C65          H66   1.082       .  S
C70          C72   1.539       .  S
C70          C74   1.540       .  S
C70          C73   1.554       .  S
C70         C757   1.538       .  S
C71          C75   1.552       .  S
C71          C77   1.543       .  S
C71          C76   1.532       .  S
C71         C798   1.538       .  S
C72          C80   1.379       .  A
C72          C75   1.397       .  A
C73          C84   1.388       .  A
C73          C76   1.393       .  A
C74          C88   1.380       .  A
C74          C77   1.390       .  A
C75          C78   1.387       .  A
C76          C82   1.375       .  A
C77          C85   1.379       .  A
C78          N79   1.359       .  A
C78          H91   1.081       .  S
N79          C80   1.356       .  A
N79         C661   1.442       .  S
C80          H81   1.083       .  S
C82          N83   1.354       .  A
C82          H92   1.083       .  S
N83          C84   1.358       .  A
N83         C629   1.440       .  S
C84          H90   1.080       .  S
C85          N86   1.358       .  A
C85          H87   1.082       .  S
N86          C88   1.358       .  A
N86         C702   1.442       .  S
C88          H89   1.080       .  S
C93          C95   1.542       .  S
C93          C97   1.551       .  S
C93          C96   1.537       .  S
C93         C542   1.540       .  S
C94          C98   1.556       .  S
C94         C100   1.535       .  S
C94          C99   1.537       .  S
C94         C510   1.539       .  S
C95         C103   1.380       .  A
C95          C98   1.398   1_554  A
C96         C107   1.376       .  A
C96          C99   1.390   1_554  A
C97         C111   1.386       .  A
C97         C100   1.394   1_554  A
C98         C101   1.387       .  A
C99         C105   1.381       .  A
C100        C108   1.376       .  A
C101        N102   1.356       .  A
C101        H114   1.081       .  S
N102        C103   1.355   1_556  A
N102        C574   1.439       .  S
C103        H104   1.081       .  S
C105        N106   1.360       .  A
C105        H115   1.082       .  S
N106        C107   1.356   1_556  A
N106        C734   1.439       .  S
C107        H113   1.082       .  S
C108        N109   1.355       .  A
C108        H110   1.083       .  S
N109        C111   1.359   1_556  A
N109        C606   1.442       .  S
C111        H112   1.080       .  S
C116        C118   1.529       .  S
C116        C120   1.542       .  S
C116        C119   1.547       .  S
C116        C501   1.534       .  S
C117        C121   1.535       .  S
C117        C123   1.541       .  S
C117        C122   1.557       .  S
C117        C533   1.540       .  S
C118        C126   1.379       .  A
C118        C121   1.384       .  A
C119        C130   1.382       .  A
C119        C122   1.409       .  A
C120        C134   1.380       .  A
C120        C123   1.394       .  A
C121        C124   1.379       .  A
C122        C128   1.391       .  A
C123        C131   1.380       .  A
C124        N125   1.360       .  A
C124        H137   1.082       .  S
N125        C126   1.359       .  A
N125        C437   1.443       .  S
C126        H127   1.082       .  S
C128        N129   1.352       .  A
C128        H138   1.080       .  S
N129        C130   1.349       .  A
N129        C638   1.437       .  S
C130        H136   1.081       .  S
C131        N132   1.358       .  A
C131        H133   1.082       .  S
N132        C134   1.358       .  A
N132        C469   1.439       .  S
C134        H135   1.082       .  S
C139        C141   1.542       .  S
C139        C143   1.538       .  S
C139        C142   1.561       .  S
C139        C309   1.543       .  S
C140        C144   1.547       .  S
C140        C146   1.535       .  S
C140        C145   1.537       .  S
C140        C350   1.537       .  S
C141        C149   1.380       .  A
C141        C144   1.404   1_556  A
C142        C153   1.389       .  A
C142        C145   1.398   1_556  A
C143        C157   1.384       .  A
C143        C146   1.388   1_556  A
C144        C147   1.388       .  A
C145        C151   1.378       .  A
C146        C154   1.377       .  A
C147        N148   1.357   1_554  A
C147        H160   1.082       .  S
N148        C149   1.352       .  A
N148        C405   1.440       .  S
C149        H150   1.083       .  S
C151        N152   1.353   1_554  A
C151        H161   1.082       .  S
N152        C153   1.357       .  A
N152        C981   1.440       .  S
C153        H159   1.080       .  S
C154        N155   1.357   1_554  A
C154        H156   1.083       .  S
N155        C157   1.359       .  A
N155        C373   1.439       .  S
C157        H158   1.082       .  S
C162        C164   1.539       .  S
C162        C166   1.556       .  S
C162        C165   1.530       .  S
C162        C318   1.541       .  S
C163        C167   1.547       .  S
C163        C169   1.553       .  S
C163        C168   1.531       .  S
C163        C341   1.538       .  S
C164        C172   1.379       .  A
C164        C167   1.393       .  A
C165        C176   1.376       .  A
C165        C168   1.384       .  A
C166        C180   1.385       .  A
C166        C169   1.408       .  A
C167        C170   1.382       .  A
C168        C174   1.380       .  A
C169        C177   1.386       .  A
C170        N171   1.359       .  A
C170        H183   1.081       .  S
N171        C172   1.358       .  A
N171        C254   1.443       .  S
C172        H173   1.082       .  S
C174        N175   1.359       .  A
C174        H184   1.082       .  S
N175        C176   1.357       .  A
N175        C894   1.440       .  S
C176        H182   1.082       .  S
C177        N178   1.354       .  A
C177        H179   1.081       .  S
N178        C180   1.353       .  A
N178        C277   1.439       .  S
C180        H181   1.080       .  S
O185        V193   1.905   1_565  S
O185        C195   1.266       .  A
O186        V193   1.906   1_655  S
O186        C196   1.266       .  A
O187        V193   1.899       .  S
O187        C197   1.264       .  A
O188        V193   1.901   1_665  S
O188        C198   1.265       .  A
O189        V194   1.900   1_665  S
O189        C198   1.265   1_554  A
O190        V194   1.901       .  S
O190        C197   1.264   1_554  A
O191        V194   1.906   1_655  S
O191        C196   1.265   1_554  A
O192        V194   1.904   1_565  S
O192        C195   1.266   1_554  A
V193        V194   2.086   1_556  T
C195        C414   1.486       .  S
C196       C1086   1.484       .  S
C197        C862   1.475       .  S
C198        C597   1.479       .  S
O199        V207   1.907   1_655  S
O199        C209   1.266       .  A
O200        V207   1.907   1_565  S
O200        C210   1.266       .  A
O201        V207   1.897       .  S
O201        C211   1.263       .  A
O202        V207   1.898   1_665  S
O202        C212   1.264       .  A
O203        V208   1.908   1_665  S
O203        C212   1.267       .  A
O204        V208   1.908       .  S
O204        C211   1.267       .  A
O205        V208   1.900   1_565  S
O205        C210   1.264       .  A
O206        V208   1.902   1_655  S
O206        C209   1.265       .  A
V207        V208   2.086       .  T
C209        C917   1.486       .  S
C210        C286   1.482       .  S
C211        C693   1.481       .  S
C212        C478   1.485       .  S
O213        V221   1.908       .  S
O213        C223   1.266       .  A
O214        V221   1.908       .  S
O214        C224   1.267       .  A
O215        V221   1.905       .  S
O215        C225   1.265       .  A
O216        V221   1.905       .  S
O216        C226   1.265       .  A
O217        V222   1.903       .  S
O217        C226   1.266   1_556  A
O218        V222   1.901       .  S
O218        C225   1.265   1_556  A
O219        V222   1.897       .  S
O219        C224   1.263   1_556  A
O220        V222   1.897       .  S
O220        C223   1.264   1_556  A
V221        V222   2.086   1_554  T
C223       C1118   1.481       .  S
C224        C382   1.484       .  S
C225        C821   1.479       .  S
C226        C565   1.487       .  S
O227        V235   1.904       .  S
O227        C237   1.266       .  A
O228        V235   1.905       .  S
O228        C238   1.266       .  A
O229        V235   1.900       .  S
O229        C239   1.264       .  A
O230        V235   1.899       .  S
O230        C240   1.264       .  A
O231        V236   1.907       .  S
O231        C240   1.266       .  A
O232        V236   1.907       .  S
O232        C239   1.266       .  A
O233        V236   1.903       .  S
O233        C238   1.265       .  A
O234        V236   1.902       .  S
O234        C237   1.265       .  A
V235        V236   2.085       .  T
C237        C670   1.482       .  S
C238        C446   1.483       .  S
C239        C958   1.484       .  S
C240        C245   1.479       .  S
C241        C242   1.403       .  A
C241        C246   1.406       .  A
C241        H251   1.084       .  S
C242        C243   1.410       .  A
C242        C247   1.486       .  S
C243        C248   1.506       .  S
C243        C244   1.404       .  A
C244        C245   1.405       .  A
C244        H249   1.084       .  S
C245        C246   1.417       .  A
C246        C250   1.508       .  S
C247        C252   1.411       .  A
C247        C256   1.403       .  A
C248        H264   1.110       .  S
C248        H265   1.110       .  S
C248        H266   1.111       .  S
C250        H261   1.111       .  S
C250        H262   1.110       .  S
C250        H263   1.107       .  S
C252        C257   1.507       .  S
C252        C253   1.403       .  A
C253        C254   1.405       .  A
C253        H258   1.083       .  S
C254        C255   1.416       .  A
C255        C259   1.505       .  S
C255        C256   1.406       .  A
C256        H260   1.084       .  S
C257        H267   1.111       .  S
C257        H268   1.110       .  S
C257        H269   1.110       .  S
C259        H270   1.110       .  S
C259        H271   1.108       .  S
C259        H272   1.111       .  S
C273        C274   1.400       .  A
C273        C278   1.401       .  A
C273        H283   1.085       .  S
C274        C275   1.412       .  A
C274        C279   1.484       .  S
C275        C280   1.505       .  S
C275        C276   1.407       .  A
C276        C277   1.403       .  A
C276        H281   1.084       .  S
C277        C278   1.417       .  A
C278        C282   1.507       .  S
C279        C284   1.411       .  A
C279        C288   1.402       .  A
C280        H296   1.110       .  S
C280        H297   1.110       .  S
C280        H298   1.111       .  S
C282        H293   1.111       .  S
C282        H294   1.110       .  S
C282        H295   1.107       .  S
C284        C289   1.507       .  S
C284        C285   1.404       .  A
C285        C286   1.405       .  A
C285        H290   1.084       .  S
C286        C287   1.418       .  A
C287        C291   1.508       .  S
C287        C288   1.406       .  A
C288        H292   1.085       .  S
C289        H299   1.111       .  S
C289        H300   1.110       .  S
C289        H301   1.110       .  S
C291        H302   1.110       .  S
C291        H303   1.107       .  S
C291        H304   1.111       .  S
C305        C306   1.397       .  A
C305        C310   1.406       .  A
C305        H315   1.085       .  S
C306        C307   1.404       .  A
C306        C311   1.478       .  S
C307        C312   1.510       .  S
C307        C308   1.398       .  A
C308        C309   1.410       .  A
C308        H313   1.068       .  S
C309        C310   1.432       .  A
C310        C314   1.511       .  S
C311        C316   1.406       .  A
C311        C320   1.395       .  A
C312        H328   1.110       .  S
C312        H329   1.108       .  S
C312        H330   1.111       .  S
C314        H325   1.111       .  S
C314        H326   1.110       .  S
C314        H327   1.102       .  S
C316        C321   1.510       .  S
C316        C317   1.400       .  A
C317        C318   1.409       .  A
C317        H322   1.071       .  S
C318        C319   1.432       .  A
C319        C323   1.512       .  S
C319        C320   1.404       .  A
C320        H324   1.085       .  S
C321        H331   1.111       .  S
C321        H332   1.110       .  S
C321        H333   1.108       .  S
C323        H334   1.110       .  S
C323        H335   1.102       .  S
C323        H336   1.111       .  S
C337        C338   1.400       .  A
C337        C342   1.404       .  A
C337        H347   1.085       .  S
C338        C339   1.410       .  A
C338        C343   1.485       .  S
C339        C344   1.510       .  S
C339        C340   1.404       .  A
C340        C341   1.409       .  A
C340        H345   1.079       .  S
C341        C342   1.426       .  A
C342        C346   1.510       .  S
C343        C348   1.410       .  A
C343        C352   1.398       .  A
C344        H360   1.110       .  S
C344        H361   1.106       .  S
C344        H362   1.111       .  S
C346        H357   1.110       .  S
C346        H358   1.111       .  S
C346        H359   1.105       .  S
C348        C353   1.509       .  S
C348        C349   1.405       .  A
C349        C350   1.410       .  A
C349        H354   1.080       .  S
C350        C351   1.429       .  A
C351        C355   1.511       .  S
C351        C352   1.402       .  A
C352        H356   1.085       .  S
C353        H363   1.111       .  S
C353        H364   1.110       .  S
C353        H365   1.106       .  S
C355        H366   1.103       .  S
C355        H367   1.111       .  S
C355        H368   1.110       .  S
C369        C370   1.401   1_554  A
C369        C374   1.403       .  A
C369        H379   1.085       .  S
C370        C371   1.414       .  A
C370        C375   1.487       .  S
C371        C376   1.506       .  S
C371        C372   1.408       .  A
C372        C373   1.403       .  A
C372        H377   1.083       .  S
C373        C374   1.415   1_556  A
C374        C378   1.506       .  S
C375        C380   1.411       .  A
C375        C384   1.402   1_556  A
C376        H392   1.110       .  S
C376        H393   1.110       .  S
C376        H394   1.111       .  S
C378        H389   1.111   1_554  S
C378        H390   1.110       .  S
C378        H391   1.107       .  S
C380        C385   1.506       .  S
C380        C381   1.405       .  A
C381        C382   1.406   1_556  A
C381        H386   1.084       .  S
C382        C383   1.419       .  A
C383        C387   1.509       .  S
C383        C384   1.406       .  A
C384        H388   1.084       .  S
C385        H395   1.111       .  S
C385        H396   1.110       .  S
C385        H397   1.110       .  S
C387        H398   1.110       .  S
C387        H399   1.105       .  S
C387        H400   1.111       .  S
C401        C402   1.403   1_554  A
C401        C406   1.406       .  A
C401        H411   1.084       .  S
C402        C403   1.412       .  A
C402        C407   1.488       .  S
C403        C408   1.506       .  S
C403        C404   1.406       .  A
C404        C405   1.404       .  A
C404        H409   1.084       .  S
C405        C406   1.415   1_556  A
C406        C410   1.506       .  S
C407        C412   1.411       .  A
C407        C416   1.402   1_556  A
C408        H424   1.110       .  S
C408        H425   1.110       .  S
C408        H426   1.111       .  S
C410        H421   1.111       .  S
C410        H422   1.110       .  S
C410        H423   1.107       .  S
C412        C417   1.506       .  S
C412        C413   1.406       .  A
C413        C414   1.406       .  A
C413        H418   1.084       .  S
C414        C415   1.420   1_556  A
C415        C419   1.509       .  S
C415        C416   1.406       .  A
C416        H420   1.085       .  S
C417        H427   1.111       .  S
C417        H428   1.110       .  S
C417        H429   1.110       .  S
C419        H430   1.110       .  S
C419        H431   1.106       .  S
C419        H432   1.111       .  S
C433        C434   1.402       .  A
C433        C438   1.406       .  A
C433        H443   1.084       .  S
C434        C435   1.411       .  A
C434        C439   1.487       .  S
C435        C440   1.506       .  S
C435        C436   1.405       .  A
C436        C437   1.405       .  A
C436        H441   1.083       .  S
C437        C438   1.417       .  A
C438        C442   1.506       .  S
C439        C444   1.412       .  A
C439        C448   1.402       .  A
C440        H456   1.110       .  S
C440        H457   1.110       .  S
C440        H458   1.111       .  S
C442        H453   1.111       .  S
C442        H454   1.110       .  S
C442        H455   1.107       .  S
C444        C449   1.506       .  S
C444        C445   1.406       .  A
C445        C446   1.405       .  A
C445        H450   1.084       .  S
C446        C447   1.419       .  A
C447        C451   1.509       .  S
C447        C448   1.405       .  A
C448        H452   1.084       .  S
C449        H459   1.111       .  S
C449        H460   1.110       .  S
C449        H461   1.110       .  S
C451        H462   1.110       .  S
C451        H463   1.106       .  S
C451        H464   1.111       .  S
C465        C466   1.403       .  A
C465        C470   1.405       .  A
C465        H475   1.084       .  S
C466        C467   1.412       .  A
C466        C471   1.487       .  S
C467        C472   1.506       .  S
C467        C468   1.406       .  A
C468        C469   1.403       .  A
C468        H473   1.084       .  S
C469        C470   1.415       .  A
C470        C474   1.506       .  S
C471        C476   1.412       .  A
C471        C480   1.401       .  A
C472        H488   1.110       .  S
C472        H489   1.110       .  S
C472        H490   1.111       .  S
C474        H485   1.111       .  S
C474        H486   1.110       .  S
C474        H487   1.107       .  S
C476        C481   1.506       .  S
C476        C477   1.406       .  A
C477        C478   1.405       .  A
C477        H482   1.084   1_565  S
C478        C479   1.420       .  A
C479        C483   1.509       .  S
C479        C480   1.405       .  A
C480        H484   1.085       .  S
C481        H491   1.111   1_565  S
C481        H492   1.110       .  S
C481        H493   1.110       .  S
C483        H494   1.110       .  S
C483        H495   1.106       .  S
C483        H496   1.111       .  S
C497        C498   1.398       .  A
C497        C502   1.402       .  A
C497        H507   1.085       .  S
C498        C499   1.407       .  A
C498        C503   1.479       .  S
C499        C504   1.508       .  S
C499        C500   1.400       .  A
C500        C501   1.411       .  A
C500        H505   1.079       .  S
C501        C502   1.426       .  A
C502        C506   1.510       .  S
C503        C508   1.406       .  A
C503        C512   1.398       .  A
C504        H520   1.110       .  S
C504        H521   1.110       .  S
C504        H522   1.111       .  S
C506        H517   1.111       .  S
C506        H518   1.110       .  S
C506        H519   1.104       .  S
C508        C513   1.509       .  S
C508        C509   1.398       .  A
C509        C510   1.410       .  A
C509        H514   1.074       .  S
C510        C511   1.429       .  A
C511        C515   1.509       .  S
C511        C512   1.404       .  A
C512        H516   1.085       .  S
C513        H523   1.111       .  S
C513        H524   1.109       .  S
C513        H525   1.110       .  S
C515        H526   1.111       .  S
C515        H527   1.103       .  S
C515        H528   1.110       .  S
C529        C530   1.400       .  A
C529        C534   1.405       .  A
C529        H539   1.085       .  S
C530        C531   1.409       .  A
C530        C535   1.486       .  S
C531        C536   1.509       .  S
C531        C532   1.401       .  A
C532        C533   1.409       .  A
C532        H537   1.075       .  S
C533        C534   1.428       .  A
C534        C538   1.511       .  S
C535        C540   1.409       .  A
C535        C544   1.399       .  A
C536        H552   1.108       .  S
C536        H553   1.111       .  S
C536        H554   1.111       .  S
C538        H549   1.110       .  S
C538        H550   1.111       .  S
C538        H551   1.103       .  S
C540        C545   1.508       .  S
C540        C541   1.403       .  A
C541        C542   1.409       .  A
C541        H546   1.075       .  S
C542        C543   1.429       .  A
C543        C547   1.512       .  S
C543        C544   1.403       .  A
C544        H548   1.084       .  S
C545        H555   1.111       .  S
C545        H556   1.109       .  S
C545        H557   1.110       .  S
C547        H558   1.110       .  S
C547        H559   1.104       .  S
C547        H560   1.111       .  S
C561        C562   1.402   1_554  A
C561        C566   1.406       .  A
C561        H571   1.084       .  S
C562        C563   1.411       .  A
C562        C567   1.487       .  S
C563        C568   1.507       .  S
C563        C564   1.405       .  A
C564        C565   1.406   1_556  A
C564        H569   1.084       .  S
C565        C566   1.420       .  A
C566        C570   1.508       .  S
C567        C572   1.413       .  A
C567        C576   1.403   1_556  A
C568        H584   1.109       .  S
C568        H585   1.110       .  S
C568        H586   1.111       .  S
C570        H581   1.111       .  S
C570        H582   1.110       .  S
C570        H583   1.106       .  S
C572        C577   1.506       .  S
C572        C573   1.405       .  A
C573        C574   1.403       .  A
C573        H578   1.084       .  S
C574        C575   1.414   1_556  A
C575        C579   1.506       .  S
C575        C576   1.405       .  A
C576        H580   1.084       .  S
C577        H587   1.111       .  S
C577        H588   1.109       .  S
C577        H589   1.110       .  S
C579        H590   1.110       .  S
C579        H591   1.108       .  S
C579        H592   1.111       .  S
C593        C594   1.401       .  A
C593        C598   1.405       .  A
C593        H603   1.085       .  S
C594        C595   1.410   1_556  A
C594        C599   1.483       .  S
C595        C600   1.506       .  S
C595        C596   1.404       .  A
C596        C597   1.405   1_554  A
C596        H601   1.084       .  S
C597        C598   1.418       .  A
C598        C602   1.508   1_565  S
C599        C604   1.410   1_556  A
C599        C608   1.402       .  A
C600        H616   1.110       .  S
C600        H617   1.110       .  S
C600        H618   1.111       .  S
C602        H613   1.111       .  S
C602        H614   1.110       .  S
C602        H615   1.106       .  S
C604        C609   1.507       .  S
C604        C605   1.402       .  A
C605        C606   1.405   1_554  A
C605        H610   1.083       .  S
C606        C607   1.418       .  A
C607        C611   1.506       .  S
C607        C608   1.406       .  A
C608        H612   1.084       .  S
C609        H619   1.111       .  S
C609        H620   1.110       .  S
C609        H621   1.110       .  S
C611        H622   1.110       .  S
C611        H623   1.107       .  S
C611        H624   1.111       .  S
C625        C626   1.402       .  A
C625        C630   1.405       .  A
C625        H635   1.084   1_545  S
C626        C627   1.410       .  A
C626        C631   1.482   1_545  S
C627        C632   1.506       .  S
C627        C628   1.402       .  A
C628        C629   1.404       .  A
C628        H633   1.084       .  S
C629        C630   1.417       .  A
C630        C634   1.506       .  S
C631        C636   1.410       .  A
C631        C640   1.404       .  A
C632        H648   1.110       .  S
C632        H649   1.110       .  S
C632        H650   1.111       .  S
C634        H645   1.111       .  S
C634        H646   1.110       .  S
C634        H647   1.106       .  S
C636        C641   1.507       .  S
C636        C637   1.400       .  A
C637        C638   1.403       .  A
C637        H642   1.084       .  S
C638        C639   1.414       .  A
C639        C643   1.505       .  S
C639        C640   1.406       .  A
C640        H644   1.084   1_565  S
C641        H651   1.111       .  S
C641        H652   1.110       .  S
C641        H653   1.110       .  S
C643        H654   1.110       .  S
C643        H655   1.108       .  S
C643        H656   1.111   1_565  S
C657        C658   1.401       .  A
C657        C662   1.404       .  A
C657        H667   1.085       .  S
C658        C659   1.411       .  A
C658        C663   1.486       .  S
C659        C664   1.505       .  S
C659        C660   1.408       .  A
C660        C661   1.405       .  A
C660        H665   1.084       .  S
C661        C662   1.417       .  A
C662        C666   1.507       .  S
C663        C668   1.411       .  A
C663        C672   1.402       .  A
C664        H680   1.110       .  S
C664        H681   1.110       .  S
C664        H682   1.111       .  S
C666        H677   1.111       .  S
C666        H678   1.110       .  S
C666        H679   1.106       .  S
C668        C673   1.506       .  S
C668        C669   1.405       .  A
C669        C670   1.405       .  A
C669        H674   1.084       .  S
C670        C671   1.417       .  A
C671        C675   1.508       .  S
C671        C672   1.406       .  A
C672        H676   1.084       .  S
C673        H683   1.111       .  S
C673        H684   1.110       .  S
C673        H685   1.110       .  S
C675        H686   1.110       .  S
C675        H687   1.107       .  S
C675        H688   1.111       .  S
C689        C690   1.401       .  A
C689        C694   1.405       .  A
C689        H699   1.084       .  S
C690        C691   1.411       .  A
C690        C695   1.485       .  S
C691        C696   1.506       .  S
C691        C692   1.405       .  A
C692        C693   1.404       .  A
C692        H697   1.084       .  S
C693        C694   1.419       .  A
C694        C698   1.508       .  S
C695        C700   1.410       .  A
C695        C704   1.402       .  A
C696        H712   1.110       .  S
C696        H713   1.110       .  S
C696        H714   1.111       .  S
C698        H709   1.111       .  S
C698        H710   1.110       .  S
C698        H711   1.107       .  S
C700        C705   1.506       .  S
C700        C701   1.404       .  A
C701        C702   1.404       .  A
C701        H706   1.083       .  S
C702        C703   1.418       .  A
C703        C707   1.506       .  S
C703        C704   1.407       .  A
C704        H708   1.084       .  S
C705        H715   1.111       .  S
C705        H716   1.110       .  S
C705        H717   1.110       .  S
C707        H718   1.107       .  S
C707        H719   1.110       .  S
C707        H720   1.111       .  S
C721        C722   1.400       .  A
C721        C726   1.401       .  A
C721        H731   1.085   1_545  S
C722        C723   1.412   1_556  A
C722        C727   1.482   1_545  S
C723        C728   1.506       .  S
C723        C724   1.405       .  A
C724        C725   1.403       .  A
C724        H729   1.084       .  S
C725        C726   1.417   1_554  A
C726        C730   1.507       .  S
C727        C732   1.412   1_556  A
C727        C736   1.400       .  A
C728        H744   1.110       .  S
C728        H745   1.110       .  S
C728        H746   1.111       .  S
C730        H741   1.111   1_545  S
C730        H742   1.110       .  S
C730        H743   1.105       .  S
C732        C737   1.507       .  S
C732        C733   1.404       .  A
C733        C734   1.403   1_554  A
C733        H738   1.084       .  S
C734        C735   1.416       .  A
C735        C739   1.505       .  S
C735        C736   1.402       .  A
C736        H740   1.084   1_565  S
C737        H747   1.111       .  S
C737        H748   1.109       .  S
C737        H749   1.110       .  S
C739        H750   1.110       .  S
C739        H751   1.105       .  S
C739        H752   1.111       .  S
C753        C754   1.396       .  A
C753        C758   1.403       .  A
C753        H763   1.085       .  S
C754        C755   1.405       .  A
C754        C759   1.476       .  S
C755        C760   1.508       .  S
C755        C756   1.400       .  A
C756        C757   1.408       .  A
C756        H761   1.073       .  S
C757        C758   1.430       .  A
C758        C762   1.511       .  S
C759        C764   1.403       .  A
C759        C768   1.396       .  A
C760        H776   1.110       .  S
C760        H777   1.110       .  S
C760        H778   1.111       .  S
C762        H773   1.111       .  S
C762        H774   1.110       .  S
C762        H775   1.103       .  S
C764        C769   1.509       .  S
C764        C765   1.398       .  A
C765        C766   1.407       .  A
C765        H770   1.068       .  S
C766        C767   1.433       .  A
C767        C771   1.512       .  S
C767        C768   1.405       .  A
C768        H772   1.085       .  S
C769        H779   1.111       .  S
C769        H780   1.110       .  S
C769        H781   1.110       .  S
C771        H782   1.110       .  S
C771        H783   1.102       .  S
C771        H784   1.111       .  S
C785        C786   1.396       .  A
C785        C790   1.402       .  A
C785        H795   1.085       .  S
C786        C787   1.409       .  A
C786        C791   1.482       .  S
C787        C792   1.509       .  S
C787        C788   1.402       .  A
C788        C789   1.408       .  A
C788        H793   1.070       .  S
C789        C790   1.431       .  A
C790        C794   1.512       .  S
C791        C796   1.408       .  A
C791        C800   1.396       .  A
C792        H808   1.108       .  S
C792        H809   1.110       .  S
C792        H810   1.111       .  S
C794        H805   1.110       .  S
C794        H806   1.111       .  S
C794        H807   1.102       .  S
C796        C801   1.508       .  S
C796        C797   1.403       .  A
C797        C798   1.410       .  A
C797        H802   1.075       .  S
C798        C799   1.431       .  A
C799        C803   1.512       .  S
C799        C800   1.401       .  A
C800        H804   1.084       .  S
C801        H811   1.111       .  S
C801        H812   1.109       .  S
C801        H813   1.111       .  S
C803        H814   1.110       .  S
C803        H815   1.103       .  S
C803        H816   1.111       .  S
C817        C818   1.402       .  A
C817        C822   1.405       .  A
C817        H827   1.084   1_554  S
C818        C819   1.412       .  A
C818        C823   1.486       .  S
C819        C824   1.506       .  S
C819        C820   1.406       .  A
C820        C821   1.404       .  A
C820        H825   1.084       .  S
C821        C822   1.417       .  A
C822        C826   1.508   1_554  S
C823        C828   1.413       .  A
C823        C832   1.401       .  A
C824        H840   1.110       .  S
C824        H841   1.110       .  S
C824        H842   1.111       .  S
C826        H837   1.111       .  S
C826        H838   1.110       .  S
C826        H839   1.107       .  S
C828        C833   1.505       .  S
C828        C829   1.407       .  A
C829        C830   1.403       .  A
C829        H834   1.084       .  S
C830        C831   1.415       .  A
C831        C835   1.507   1_554  S
C831        C832   1.402       .  A
C832        H836   1.085   1_554  S
C833        H843   1.111       .  S
C833        H844   1.110       .  S
C833        H845   1.110       .  S
C835        H846   1.110       .  S
C835        H847   1.107       .  S
C835        H848   1.111       .  S
C849        C850   1.401   1_556  A
C849        C854   1.404       .  A
C849        H859   1.084       .  S
C850        C851   1.411       .  A
C850        C855   1.482       .  S
C851        C856   1.507       .  S
C851        C852   1.403       .  A
C852        C853   1.404       .  A
C852        H857   1.083       .  S
C853        C854   1.416   1_554  A
C854        C858   1.506       .  S
C855        C860   1.411       .  A
C855        C864   1.401   1_554  A
C856        H872   1.110       .  S
C856        H873   1.111       .  S
C856        H874   1.111       .  S
C858        H869   1.111       .  S
C858        H870   1.110       .  S
C858        H871   1.107       .  S
C860        C865   1.506       .  S
C860        C861   1.404       .  A
C861        C862   1.404   1_554  A
C861        H866   1.084       .  S
C862        C863   1.417       .  A
C863        C867   1.509       .  S
C863        C864   1.403       .  A
C864        H868   1.085       .  S
C865        H875   1.111       .  S
C865        H876   1.110       .  S
C865        H877   1.110       .  S
C867        H878   1.110       .  S
C867        H879   1.106   1_545  S
C867        H880   1.111   1_545  S
C881        C882   1.401       .  A
C881        C886   1.405       .  A
C881        H891   1.084       .  S
C882        C883   1.410       .  A
C882        C887   1.483   1_655  S
C883        C888   1.506   1_655  S
C883        C884   1.404       .  A
C884        C885   1.405       .  A
C884        H889   1.084       .  S
C885        C886   1.417       .  A
C886        C890   1.507       .  S
C887        C892   1.411       .  A
C887        C896   1.401       .  A
C888        H904   1.110       .  S
C888        H905   1.110       .  S
C888        H906   1.111       .  S
C890        H901   1.111       .  S
C890        H902   1.110       .  S
C890        H903   1.106       .  S
C892        C897   1.506   1_455  S
C892        C893   1.404       .  A
C893        C894   1.404       .  A
C893        H898   1.083       .  S
C894        C895   1.417       .  A
C895        C899   1.507       .  S
C895        C896   1.404       .  A
C896        H900   1.084       .  S
C897        H907   1.111       .  S
C897        H908   1.110       .  S
C897        H909   1.110       .  S
C899        H910   1.110       .  S
C899        H911   1.106       .  S
C899        H912   1.111       .  S
C913        C914   1.401       .  A
C913        C918   1.405       .  A
C913        H923   1.085       .  S
C914        C915   1.410       .  A
C914        C919   1.487       .  S
C915        C920   1.506       .  S
C915        C916   1.407       .  A
C916        C917   1.407       .  A
C916        H921   1.084       .  S
C917        C918   1.421       .  A
C918        C922   1.509   1_655  S
C919        C924   1.412       .  A
C919        C928   1.402       .  A
C920        H936   1.110       .  S
C920        H937   1.110       .  S
C920        H938   1.111       .  S
C922        H933   1.111       .  S
C922        H934   1.110   1_455  S
C922        H935   1.105       .  S
C924        C929   1.506       .  S
C924        C925   1.405       .  A
C925        C926   1.404       .  A
C925        H930   1.083       .  S
C926        C927   1.416       .  A
C927        C931   1.506       .  S
C927        C928   1.408       .  A
C928        H932   1.084       .  S
C929        H939   1.111       .  S
C929        H940   1.110       .  S
C929        H941   1.110       .  S
C931        H942   1.107       .  S
C931        H943   1.110       .  S
C931        H944   1.111       .  S
C945        C946   1.402       .  A
C945        C950   1.404       .  A
C945        H955   1.085       .  S
C946        C947   1.413       .  A
C946        C951   1.488       .  S
C947        C952   1.506       .  S
C947        C948   1.407       .  A
C948        C949   1.403       .  A
C948        H953   1.084       .  S
C949        C950   1.416       .  A
C950        C954   1.507       .  S
C951        C956   1.412       .  A
C951        C960   1.402       .  A
C952        H968   1.110       .  S
C952        H969   1.110       .  S
C952        H970   1.111       .  S
C954        H965   1.111       .  S
C954        H966   1.110       .  S
C954        H967   1.107       .  S
C956        C961   1.507       .  S
C956        C957   1.405       .  A
C957        C958   1.405       .  A
C957        H962   1.084       .  S
C958        C959   1.419       .  A
C959        C963   1.509       .  S
C959        C960   1.406       .  A
C960        H964   1.084       .  S
C961        H971   1.111       .  S
C961        H972   1.109       .  S
C961        H973   1.110       .  S
C963        H974   1.110       .  S
C963        H975   1.107       .  S
C963        H976   1.111       .  S
C977        C978   1.400       .  A
C977        C982   1.404   1_655  A
C977        H987   1.084       .  S
C978        C979   1.412   1_656  A
C978        C983   1.482       .  S
C979        C984   1.507       .  S
C979        C980   1.404       .  A
C980        C981   1.404   1_554  A
C980        H985   1.083       .  S
C981        C982   1.417       .  A
C982        C986   1.506       .  S
C983        C988   1.411   1_556  A
C983        C992   1.401       .  A
C984       H1000   1.110       .  S
C984       H1001   1.110       .  S
C984       H1002   1.111       .  S
C986        H997   1.111   1_455  S
C986        H998   1.110       .  S
C986        H999   1.107       .  S
C988        C993   1.505       .  S
C988        C989   1.405       .  A
C989        C990   1.404   1_554  A
C989        H994   1.084       .  S
C990        C991   1.416       .  A
C991        C995   1.507       .  S
C991        C992   1.402       .  A
C992        H996   1.085   1_655  S
C993       H1003   1.111       .  S
C993       H1004   1.110       .  S
C993       H1005   1.110       .  S
C995       H1006   1.110       .  S
C995       H1007   1.105       .  S
C995       H1008   1.111       .  S
C1009      C1010   1.399       .  A
C1009      C1014   1.403       .  A
C1009      H1019   1.084       .  S
C1010      C1011   1.410       .  A
C1010      C1015   1.486       .  S
C1011      C1016   1.508       .  S
C1011      C1012   1.404       .  A
C1012      C1013   1.409       .  A
C1012      H1017   1.077       .  S
C1013      C1014   1.428       .  A
C1014      C1018   1.510       .  S
C1015      C1020   1.409       .  A
C1015      C1024   1.399       .  A
C1016      H1032   1.109       .  S
C1016      H1033   1.110       .  S
C1016      H1034   1.111       .  S
C1018      H1029   1.111       .  S
C1018      H1030   1.110       .  S
C1018      H1031   1.104       .  S
C1020      C1025   1.508       .  S
C1020      C1021   1.403       .  A
C1021      C1022   1.409       .  A
C1021      H1026   1.076       .  S
C1022      C1023   1.428       .  A
C1023      C1027   1.510       .  S
C1023      C1024   1.404       .  A
C1024      H1028   1.085       .  S
C1025      H1035   1.111       .  S
C1025      H1036   1.108       .  S
C1025      H1037   1.110       .  S
C1027      H1038   1.111       .  S
C1027      H1039   1.103       .  S
C1027      H1040   1.110       .  S
C1041      C1042   1.399       .  A
C1041      C1046   1.404       .  A
C1041      H1051   1.085       .  S
C1042      C1043   1.410       .  A
C1042      C1047   1.487       .  S
C1043      C1048   1.509       .  S
C1043      C1044   1.403       .  A
C1044      C1045   1.409       .  A
C1044      H1049   1.075       .  S
C1045      C1046   1.428       .  A
C1046      C1050   1.511       .  S
C1047      C1052   1.410       .  A
C1047      C1056   1.398       .  A
C1048      H1064   1.108       .  S
C1048      H1065   1.110       .  S
C1048      H1066   1.111       .  S
C1050      H1061   1.111       .  S
C1050      H1062   1.110       .  S
C1050      H1063   1.103       .  S
C1052      C1057   1.508       .  S
C1052      C1053   1.404       .  A
C1053      C1054   1.408       .  A
C1053      H1058   1.073       .  S
C1054      C1055   1.431       .  A
C1055      C1059   1.512       .  S
C1055      C1056   1.403       .  A
C1056      H1060   1.084       .  S
C1057      H1067   1.111       .  S
C1057      H1068   1.109       .  S
C1057      H1069   1.110       .  S
C1059      H1070   1.110       .  S
C1059      H1071   1.103       .  S
C1059      H1072   1.111       .  S
C1073      C1074   1.403   1_556  A
C1073      C1078   1.406       .  A
C1073      H1083   1.084       .  S
C1074      C1075   1.414       .  A
C1074      C1079   1.493       .  S
C1075      C1080   1.507       .  S
C1075      C1076   1.407       .  A
C1076      C1077   1.405       .  A
C1076      H1081   1.083       .  S
C1077      C1078   1.417   1_554  A
C1078      C1082   1.506       .  S
C1079      C1084   1.415       .  A
C1079      C1088   1.403   1_554  A
C1080      H1096   1.109       .  S
C1080      H1097   1.110       .  S
C1080      H1098   1.111       .  S
C1082      H1093   1.111       .  S
C1082      H1094   1.110       .  S
C1082      H1095   1.107       .  S
C1084      C1089   1.507       .  S
C1084      C1085   1.408       .  A
C1085      C1086   1.404   1_554  A
C1085      H1090   1.084       .  S
C1086      C1087   1.418       .  A
C1087      C1091   1.508   1_655  S
C1087      C1088   1.406       .  A
C1088      H1092   1.084       .  S
C1089      H1099   1.111       .  S
C1089      H1100   1.109       .  S
C1089      H1101   1.110       .  S
C1091      H1102   1.110       .  S
C1091      H1103   1.107       .  S
C1091      H1104   1.111       .  S
C1105      C1106   1.403       .  A
C1105      C1110   1.405   1_554  A
C1105      H1115   1.084   1_554  S
C1106      C1107   1.412       .  A
C1106      C1111   1.486       .  S
C1107      C1112   1.507       .  S
C1107      C1108   1.403       .  A
C1108      C1109   1.404       .  A
C1108      H1113   1.084       .  S
C1109      C1110   1.415   1_554  A
C1110      C1114   1.506       .  S
C1111      C1116   1.412       .  A
C1111      C1120   1.401       .  A
C1112      H1128   1.109       .  S
C1112      H1129   1.110       .  S
C1112      H1130   1.111       .  S
C1114      H1125   1.111       .  S
C1114      H1126   1.110       .  S
C1114      H1127   1.107       .  S
C1116      C1121   1.506       .  S
C1116      C1117   1.407       .  A
C1117      C1118   1.405       .  A
C1117      H1122   1.084       .  S
C1118      C1119   1.418       .  A
C1119      C1123   1.509   1_554  S
C1119      C1120   1.403       .  A
C1120      H1124   1.084   1_554  S
C1121      H1131   1.111       .  S
C1121      H1132   1.110       .  S
C1121      H1133   1.110       .  S
C1123      H1134   1.110       .  S
C1123      H1135   1.107       .  S
C1123      H1136   1.111       .  S
