geometry optimzed in LAMMPS
_audit_creation_date              2020-11-30 
_audit_creation_method            'lammps2cif' 
_symmetry_space_group_name_H-M    'P1' 
_symmetry_Int_Tables_number       1 
_symmetry_cell_setting            triclinic 
loop_ 
_symmetry_equiv_pos_as_xyz 
  x,y,z 
_cell_length_a                    35.58403341 
_cell_length_b                    35.58558217351988 
_cell_length_c                    32.45734161267668 
_cell_angle_alpha                 89.99969052314474 
_cell_angle_beta                  90.00073288469109 
_cell_angle_gamma                 120.00230134427889 
loop_ 
_atom_site_label 
_atom_site_type_symbol 
_atom_site_fract_x 
_atom_site_fract_y 
_atom_site_fract_z 
_atom_site_charge 
O1          O  0.38713991  0.47158113  0.02801122    -0.86800
O2          O  0.38217218  0.48754673  0.11190499    -0.83800
C3          C  0.36480545  0.48430441  0.14677710     0.96700
O4          O  0.33372342  0.44812934  0.15892487    -0.83900
O5          O  0.25705584  0.42448225  0.11537602    -0.86500
C6          C  0.23393748  0.41801693  0.08347896     1.01200
O7          O  0.24240751  0.40518096  0.05038608    -0.79300
O8          O  0.32212418  0.46038426  0.01451793    -0.79500
C9          C  0.36270504  0.48235396  0.00935753     1.01100
O10         O  0.37803635  0.38884345  0.04952157    -0.86800
O11         O  0.38480075  0.41057067  0.13310302    -0.83900
C12         C  0.35918772  0.37570392  0.15164125     0.96700
O13         O  0.31875294  0.35951154  0.14657942    -0.83900
O14         O  0.24191179  0.33899257  0.10696808    -0.86500
C15         C  0.23248111  0.31706626  0.07407740     1.01200
O16         O  0.25539039  0.33292983  0.04191531    -0.79300
O17         O  0.33480196  0.38739206  0.00039203    -0.79500
C18         C  0.36348287  0.37906895  0.01319030     1.01100
Cr19       Cr  0.37766148  0.43706364  0.08052942     1.93700
Cr20       Cr  0.29084227  0.39429696  0.12769920     1.93200
Cr21       Cr  0.29158056  0.39767257  0.03133107     1.39100
O22         O  0.31964520  0.40961455  0.07990579    -1.24500
O23         O  0.03580922  0.41263050  0.03298085    -0.86800
O24         O  0.01802116  0.38915567  0.11623953    -0.83800
C25         C  0.02187158  0.37871995  0.15263283     0.96700
O26         O  0.05843181  0.38594590  0.16580762    -0.83900
O27         O  0.08479628  0.33250518  0.12419708    -0.86500
C28         C  0.09294618  0.31743535  0.09204239     1.01200
O29         O  0.10632417  0.34007509  0.05968057    -0.79300
O30         O  0.05106298  0.36177009  0.01918798    -0.79500
C31         C  0.02710061  0.37826416  0.01390349     1.01100
O32         O  0.11454886  0.48879008  0.05599491    -0.86800
O33         O  0.09136073  0.47108763  0.13939639    -0.83900
C34         C  0.12595204  0.48128848  0.15883465     0.96700
O35         O  0.14445937  0.45914867  0.15424710    -0.83900
O36         O  0.17025506  0.40482730  0.11829380    -0.86500
C37         C  0.19236147  0.41836279  0.08567289     1.01200
O38         O  0.17660806  0.42588690  0.05372534    -0.79300
O39         O  0.12475511  0.45017377  0.00899311    -0.79500
C40         C  0.12905114  0.48600815  0.02113892     1.01100
Cr41       Cr  0.06778175  0.43774605  0.08631505     1.93700
Cr42       Cr  0.11290176  0.39691787  0.13608372     1.93200
Cr43       Cr  0.11312286  0.39587784  0.03968020     1.39100
O44         O  0.09819807  0.41007487  0.08732607    -1.24500
O45         O  0.02011409  0.12915570  0.11552543    -0.86800
O46         O  0.03367887  0.12251602  0.03118160    -0.83800
C47         C  0.02299826  0.14750649  0.01351431     0.96700
O48         O  0.04565900  0.18795084  0.01949923    -0.83900
O49         O  0.10404939  0.26610332  0.05715785    -0.86500
C50         C  0.09231466  0.27513158  0.09085337     1.01200
O51         O  0.08522671  0.25131814  0.12230216    -0.79300
O52         O  0.06290598  0.17266608  0.16404393    -0.79500
C53         C  0.02548202  0.14372472  0.15196398     1.01100
O54         O  0.09521645  0.12239988  0.13494595    -0.86800
O55         O  0.11498600  0.12812939  0.05094161    -0.83900
C56         C  0.12483424  0.14285997  0.01463533     0.96700
O57         O  0.11719809  0.17228161  0.00230350    -0.83900
O58         O  0.17403358  0.25096932  0.04360114    -0.86500
C59         C  0.19078080  0.27477714  0.07509396     1.01200
O60         O  0.16998065  0.26575424  0.10866830    -0.79300
O61         O  0.14972053  0.18745621  0.14578325    -0.79500
C62         C  0.13142338  0.14703805  0.15187750     1.01100
Cr63       Cr  0.06852326  0.13057515  0.08312578     1.93700
Cr64       Cr  0.10904983  0.21652406  0.03486517     1.93200
Cr65       Cr  0.11531313  0.21650952  0.13101755     1.39100
O66         O  0.09782306  0.18830726  0.08297620    -1.24500
O67         O  0.47533253  0.38214169  0.30221205    -0.86800
O68         O  0.48916129  0.37500289  0.21858306    -0.83800
C69         C  0.48417380  0.35962314  0.18256444     0.96700
O70         O  0.44725560  0.32952357  0.17088996    -0.83900
O71         O  0.42471612  0.25218886  0.21621379    -0.86500
C72         C  0.41834481  0.22931852  0.24848458     1.01200
O73         O  0.40556196  0.23797245  0.28139864    -0.79300
O74         O  0.46312150  0.31693023  0.31578579    -0.79500
C75         C  0.48632647  0.35751210  0.32012476     1.01100
O76         O  0.39369792  0.37582878  0.28209077    -0.86800
O77         O  0.41360467  0.38086424  0.19818278    -0.83900
C78         C  0.37797660  0.35594834  0.18039397     0.96700
O79         O  0.36038022  0.31539104  0.18612607    -0.83900
O80         O  0.33999338  0.23793082  0.22554057    -0.86500
C81         C  0.31850180  0.22890542  0.25863758     1.01200
O82         O  0.33467085  0.25244285  0.29045025    -0.79300
O83         O  0.39131582  0.33215563  0.33128232    -0.79500
C84         C  0.38383095  0.36138765  0.31846897     1.01100
Cr85       Cr  0.44031253  0.37324836  0.25040299     1.93700
Cr86       Cr  0.39471882  0.28654818  0.20389162     1.93200
Cr87       Cr  0.39976822  0.28780652  0.30027729     1.39100
O88         O  0.41127058  0.31542565  0.25151892    -1.24500
O89         O  0.47605971  0.09115453  0.19664660    -0.86800
O90         O  0.49032978  0.11046706  0.28064442    -0.83800
C91         C  0.48698806  0.12571060  0.31492625     0.96700
O92         O  0.45111111  0.12184581  0.32583580    -0.83900
O93         O  0.42610717  0.17233970  0.27963010    -0.86500
C94         C  0.41863057  0.18772115  0.24729287     1.01200
O95         O  0.40497997  0.16522915  0.21507246    -0.78100
O96         O  0.46018735  0.14111935  0.17915807    -0.79500
C97         C  0.48454765  0.12482016  0.17652291     1.01100
O98         O  0.39426291  0.01506536  0.21444312    -0.86800
O99         O  0.41353673  0.03000874  0.29898536    -0.83900
C100        C  0.37989687  0.02206001  0.31893958     0.96700
O101        O  0.36412370  0.04683928  0.31507363    -0.83900
O102        O  0.34116144  0.10097113  0.27479443    -0.86500
C103        C  0.31845107  0.08749171  0.24262024     1.01200
O104        O  0.33350473  0.07949037  0.21029758    -0.79300
O105        O  0.38807935  0.05534782  0.16666437    -0.79500
C106        C  0.38277467  0.01918987  0.17845961     1.01100
Cr107      Cr  0.44062767  0.06453665  0.24753259     1.93700
Cr108      Cr  0.39718933  0.10883910  0.29426781     1.93200
Cr109      Cr  0.39806163  0.10853101  0.19770539     1.39100
O110        O  0.41187401  0.09408966  0.24652883    -1.24500
O111        O  0.12879208  0.01647102  0.21994863    -0.86800
O112        O  0.12390711  0.03254915  0.30336326    -0.83800
C113        C  0.14838119  0.02048407  0.31989170     0.96700
O114        O  0.18882510  0.04258616  0.31404193    -0.83900
O115        O  0.26778428  0.10017452  0.27744687    -0.86500
C116        C  0.27633769  0.08715990  0.24422894     1.01200
O117        O  0.25227158  0.07928922  0.21304050    -0.79300
O118        O  0.17522939  0.05656916  0.17174240    -0.79500
C119        C  0.14525061  0.02004394  0.18459734     1.01100
O120        O  0.12483330  0.09222304  0.19812505    -0.86800
O121        O  0.13128689  0.11472640  0.28177808    -0.83900
C122        C  0.14554187  0.12424865  0.31828035     0.96700
O123        O  0.17390178  0.11512118  0.33097254    -0.83900
O124        O  0.25276676  0.17066580  0.28968412    -0.86500
C125        C  0.27658604  0.18683781  0.25811098     1.01200
O126        O  0.26788877  0.16524795  0.22495908    -0.79300
O127        O  0.19060039  0.14479230  0.18598674    -0.79500
C128        C  0.15021827  0.12757422  0.18026332     1.01100
Cr129      Cr  0.13225358  0.06650765  0.25083683     1.93700
Cr130      Cr  0.21806691  0.10590501  0.29898126     1.93200
Cr131      Cr  0.21867899  0.11009430  0.20303040     1.39100
O132        O  0.19006088  0.09437598  0.25086066    -1.24500
O133        O  0.38643360  0.47216566  0.36244899    -0.86800
O134        O  0.37975274  0.48672153  0.44676776    -0.83800
C135        C  0.36426254  0.48190373  0.48282488     0.96700
O136        O  0.33403486  0.44503820  0.49438468    -0.83900
O137        O  0.25692876  0.42324518  0.44893817    -0.86500
C138        C  0.23359572  0.41634238  0.41691696     1.01200
O139        O  0.24182590  0.40275775  0.38411112    -0.79300
O140        O  0.32077706  0.45818550  0.34723833    -0.79500
C141        C  0.36133368  0.48113030  0.34252591     1.01100
O142        O  0.37999661  0.39064642  0.38307913    -0.86800
O143        O  0.38457891  0.41040142  0.46697620    -0.83900
C144        C  0.35920355  0.37500186  0.48495710     0.96700
O145        O  0.31873652  0.35784654  0.47920761    -0.83900
O146        O  0.24151612  0.33805044  0.44018999    -0.86500
C147        C  0.23266658  0.31590844  0.40760202     1.01200
O148        O  0.25643224  0.33130942  0.37589709    -0.79300
O149        O  0.33524555  0.38654446  0.33420005    -0.79500
C150        C  0.36510271  0.37999553  0.34691396     1.01100
Cr151      Cr  0.37745967  0.43742564  0.41467366     1.93700
Cr152      Cr  0.29068894  0.39268012  0.46137626     1.93200
Cr153      Cr  0.29145078  0.39591071  0.36497167     1.39100
O154        O  0.31954557  0.40860131  0.41360921    -1.24500
O155        O  0.03414990  0.41125241  0.36624284    -0.86800
O156        O  0.01752775  0.38986957  0.45012123    -0.83800
C157        C  0.02172803  0.37930253  0.48642794     0.96700
O158        O  0.05835938  0.38608106  0.49878315    -0.83900
O159        O  0.08403763  0.33222224  0.45598002    -0.86500
C160        C  0.09212593  0.31719499  0.42362148     1.01200
O161        O  0.10559480  0.33981449  0.39145165    -0.79300
O162        O  0.05110164  0.36182650  0.35096524    -0.79500
C163        C  0.02630194  0.37747620  0.34666972     1.01100
O164        O  0.11303228  0.48783846  0.38687974    -0.86800
O165        O  0.09206470  0.47229202  0.47017435    -0.83900
C166        C  0.12650991  0.48231586  0.48966853     0.96700
O167        O  0.14420077  0.45921483  0.48635793    -0.83900
O168        O  0.16969891  0.40412778  0.45096399    -0.86500
C169        C  0.19206237  0.41719574  0.41849555     1.01200
O170        O  0.17660407  0.42478964  0.38628536    -0.79300
O171        O  0.12522362  0.44961540  0.34100637    -0.79500
C172        C  0.12841176  0.48506199  0.35256778     1.01100
Cr173      Cr  0.06712191  0.43750117  0.41848651     1.93700
Cr174      Cr  0.11241351  0.39673626  0.46831629     1.93200
Cr175      Cr  0.11298473  0.39556612  0.37185670     1.39100
O176        O  0.09773123  0.40986016  0.41948699    -1.24500
O177        O  0.01990611  0.12788401  0.44553143    -0.86800
O178        O  0.03584175  0.12284324  0.36239088    -0.83800
C179        C  0.02359590  0.14733999  0.34627178     0.96700
O180        O  0.04601883  0.18782074  0.35200275    -0.83900
O181        O  0.10452668  0.26648620  0.38877517    -0.86500
C182        C  0.09161453  0.27505298  0.42209906     1.01200
O183        O  0.08359404  0.25090958  0.45317685    -0.79300
O184        O  0.06023780  0.17351701  0.49409831    -0.79500
C185        C  0.02352733  0.14417428  0.48094970     1.01100
O186        O  0.09538067  0.12292650  0.46742331    -0.86800
O187        O  0.11764569  0.12941583  0.38372261    -0.83900
C188        C  0.12691556  0.14344494  0.34714114     0.96700
O189        O  0.11813950  0.17210362  0.33456263    -0.83900
O190        O  0.17430782  0.25058854  0.37641299    -0.86500
C191        C  0.19062154  0.27422533  0.40803073     1.01200
O192        O  0.16911409  0.26573496  0.44123026    -0.79300
O193        O  0.14832362  0.18843345  0.47973219    -0.79500
C194        C  0.13074288  0.14802047  0.48540408     1.01100
Cr195      Cr  0.06974461  0.13075865  0.41478692     1.93700
Cr196      Cr  0.10954823  0.21654779  0.36693127     1.93200
Cr197      Cr  0.11390943  0.21684329  0.46294765     1.39100
O198        O  0.09800306  0.18847477  0.41496788    -1.24500
O199        O  0.47572794  0.38258332  0.63598082    -0.86800
O200        O  0.48955670  0.37557355  0.55202020    -0.83800
C201        C  0.48460979  0.36027300  0.51592055     0.96700
O202        O  0.44770467  0.33032164  0.50419884    -0.83900
O203        O  0.42606692  0.25332652  0.54924202    -0.86500
C204        C  0.41934776  0.23018103  0.58131134     1.01200
O205        O  0.40635908  0.23861956  0.61428022    -0.79300
O206        O  0.46303301  0.31727211  0.64997110    -0.79500
C207        C  0.48629272  0.35785058  0.65435611     1.01100
O208        O  0.39399847  0.37650519  0.61610888    -0.86800
O209        O  0.41358358  0.38098252  0.53196244    -0.83900
C210        C  0.37817507  0.35576267  0.51392732     0.96700
O211        O  0.36079578  0.31526218  0.51965357    -0.83900
O212        O  0.34096892  0.23784078  0.55856383    -0.86500
C213        C  0.31914368  0.22894285  0.59134442     1.01200
O214        O  0.33498243  0.25258685  0.62321452    -0.79300
O215        O  0.39057916  0.33210996  0.66499757    -0.79500
C216        C  0.38349335  0.36176913  0.65237836     1.01100
Cr217      Cr  0.44062119  0.37370254  0.58413491     1.93700
Cr218      Cr  0.39552341  0.28703645  0.53722630     1.93200
Cr219      Cr  0.39988929  0.28806547  0.63368446     1.39100
O220        O  0.41171014  0.31586989  0.58504182    -1.24500
O221        O  0.47512473  0.09091043  0.52977972    -0.86800
O222        O  0.49066495  0.11231154  0.61333038    -0.83800
C223        C  0.48714926  0.12648546  0.64812723     0.96700
O224        O  0.45100361  0.12209822  0.65919411    -0.83900
O225        O  0.42767949  0.17349275  0.61186447    -0.86500
C226        C  0.41932732  0.18848597  0.57978555     1.01200
O227        O  0.40425640  0.16537148  0.54797756    -0.78100
O228        O  0.45957077  0.14106954  0.51215796    -0.79500
C229        C  0.48374675  0.12454609  0.50951495     1.01100
O230        O  0.39363285  0.01541330  0.54999079    -0.86800
O231        O  0.41408315  0.03272173  0.63346701    -0.83900
C232        C  0.37938501  0.02378902  0.65186615     0.96700
O233        O  0.36322638  0.04817312  0.64736342    -0.83900
O234        O  0.34149379  0.10338049  0.60690180    -0.86500
C235        C  0.31808802  0.08829241  0.57520240     1.01200
O236        O  0.33283564  0.07901494  0.54343948    -0.79300
O237        O  0.38782587  0.05475971  0.50097024    -0.79500
C238        C  0.38229261  0.01879806  0.51380600     1.01100
Cr239      Cr  0.44056347  0.06562341  0.58138951     1.93700
Cr240      Cr  0.39730355  0.11022198  0.62705264     1.93200
Cr241      Cr  0.39747874  0.10846551  0.53082792     1.39100
O242        O  0.41174120  0.09494353  0.57973738    -1.24500
O243        O  0.12884939  0.01732970  0.55140547    -0.86800
O244        O  0.12252876  0.03181605  0.63614441    -0.83800
C245        C  0.14735004  0.02205412  0.65549835     0.96700
O246        O  0.18788633  0.04401169  0.64958481    -0.83900
O247        O  0.26671639  0.09979545  0.61010078    -0.86500
C248        C  0.27549775  0.08738482  0.57659218     1.01200
O249        O  0.25139936  0.07982432  0.54527524    -0.79300
O250        O  0.17342801  0.05923755  0.50302497    -0.79500
C251        C  0.14367299  0.02226397  0.51502106     1.01100
O252        O  0.12432002  0.09343430  0.53178200    -0.86800
O253        O  0.13002578  0.11390915  0.61591097    -0.83900
C254        C  0.14544216  0.12434930  0.65199972     0.96700
O255        O  0.17483951  0.11668522  0.66411319    -0.83900
O256        O  0.25301695  0.17126702  0.62214369    -0.86500
C257        C  0.27697208  0.18717674  0.59077764     1.01200
O258        O  0.26800358  0.16556843  0.55761679    -0.79300
O259        O  0.19004966  0.14650624  0.52013307    -0.79500
C260        C  0.14966338  0.12903171  0.51418310     1.01100
Cr261      Cr  0.13156892  0.06658232  0.58384266     1.93700
Cr262      Cr  0.21784313  0.10665985  0.63209066     1.93200
Cr263      Cr  0.21785756  0.11117265  0.53584245     1.39100
O264        O  0.18941690  0.09479528  0.58398206    -1.24500
O265        O  0.38501371  0.47267740  0.69608814    -0.86800
O266        O  0.38102049  0.48885509  0.77953487    -0.83800
C267        C  0.36402074  0.48569725  0.81453815     0.96700
O268        O  0.33271787  0.44967651  0.82661785    -0.83900
O269        O  0.25660152  0.42608187  0.78172770    -0.86500
C270        C  0.23266988  0.41752193  0.75011516     1.01200
O271        O  0.24057491  0.40287597  0.71790022    -0.79300
O272        O  0.31946569  0.46002184  0.68270760    -0.79500
C273        C  0.36000442  0.48342754  0.67843937     1.01100
O274        O  0.37877539  0.39080405  0.71730057    -0.86800
O275        O  0.38403323  0.41216110  0.80073672    -0.83900
C276        C  0.35824172  0.37743213  0.81936027     0.96700
O277        O  0.31779448  0.36139348  0.81473780    -0.83900
O278        O  0.24110314  0.34025592  0.77481106    -0.86500
C279        C  0.23294284  0.31745633  0.74265529     1.01200
O280        O  0.25675322  0.33267127  0.71084479    -0.79300
O281        O  0.33534562  0.38830710  0.66805599    -0.79500
C282        C  0.36451405  0.38064590  0.68089898     1.01100
Cr283      Cr  0.37695823  0.43852616  0.74829554     1.93700
Cr284      Cr  0.28997366  0.39580936  0.79533069     1.93200
Cr285      Cr  0.29095617  0.39723220  0.69921824     1.39100
O286        O  0.31899957  0.41037792  0.74771834    -1.24500
O287        O  0.03625216  0.41400173  0.69954391    -0.86800
O288        O  0.01842787  0.39307668  0.78318519    -0.83800
C289        C  0.02153156  0.38086493  0.81907209     0.96700
O290        O  0.05731010  0.38573475  0.83200417    -0.83900
O291        O  0.08389971  0.33177032  0.79130484    -0.86500
C292        C  0.09188376  0.31636920  0.75927832     1.01200
O293        O  0.10448294  0.33867011  0.72673384    -0.79300
O294        O  0.04845752  0.36064915  0.68808758    -0.79500
C295        C  0.02559506  0.37824024  0.68223038     1.01100
O296        O  0.11674265  0.48918926  0.72076552    -0.86800
O297        O  0.09352148  0.47394252  0.80471507    -0.83900
C298        C  0.12660705  0.48211037  0.82577233     0.96700
O299        O  0.14367338  0.45853500  0.82217321    -0.83900
O300        O  0.16926949  0.40480025  0.78493997    -0.86500
C301        C  0.19092334  0.41741767  0.75195119     1.01200
O302        O  0.17476957  0.42376388  0.71958367    -0.79300
O303        O  0.12281116  0.44778614  0.67410931    -0.79500
C304        C  0.12917888  0.48463327  0.68542012     1.01100
Cr305      Cr  0.06905022  0.43973385  0.75231269     1.93700
Cr306      Cr  0.11190247  0.39655798  0.80292385     1.93200
Cr307      Cr  0.11113438  0.39429396  0.70648387     1.39100
O308        O  0.09767517  0.41015508  0.75404893    -1.24500
O309        O  0.02098688  0.12809620  0.78093476    -0.86800
O310        O  0.03618175  0.12173309  0.69655999    -0.83800
C311        C  0.02635886  0.14672756  0.67770109     0.96700
O312        O  0.04808401  0.18712349  0.68443271    -0.83900
O313        O  0.10407654  0.26539174  0.72439321    -0.86500
C314        C  0.09213144  0.27425755  0.75812054     1.01200
O315        O  0.08550338  0.25050646  0.78959085    -0.79300
O316        O  0.06301888  0.17131530  0.83005130    -0.79500
C317        C  0.02578095  0.14277426  0.81732486     1.01100
O318        O  0.09608690  0.12141455  0.80146894    -0.86800
O319        O  0.11727107  0.12818209  0.71743850    -0.83900
C320        C  0.12740037  0.14336021  0.68125877     0.96700
O321        O  0.12049111  0.17339344  0.66937719    -0.83900
O322        O  0.17541174  0.25151780  0.71182591    -0.86500
C323        C  0.19163798  0.27496141  0.74348321     1.01200
O324        O  0.17053235  0.26543513  0.77693043    -0.79300
O325        O  0.15020945  0.18642237  0.81324563    -0.79500
C326        C  0.13207554  0.14588467  0.81887602     1.01100
Cr327      Cr  0.07015048  0.13001524  0.74921304     1.93700
Cr328      Cr  0.11081861  0.21661913  0.70184656     1.93200
Cr329      Cr  0.11572176  0.21558418  0.79814587     1.39100
O330        O  0.09900268  0.18783864  0.74967552    -1.24500
O331        O  0.47321460  0.38161898  0.96915975    -0.86800
O332        O  0.48787347  0.37524677  0.88531660    -0.83800
C333        C  0.48307156  0.36071834  0.84893482     0.96700
O334        O  0.44593045  0.33171670  0.83633329    -0.83900
O335        O  0.42326669  0.25279191  0.87782632    -0.86500
C336        C  0.41630539  0.22913349  0.90947669     1.01200
O337        O  0.40399386  0.23794917  0.94285219    -0.79300
O338        O  0.46214406  0.31648455  0.98055184    -0.79500
C339        C  0.48471097  0.35703047  0.98635881     1.01100
O340        O  0.39167251  0.37507429  0.94818238    -0.86800
O341        O  0.41296574  0.38184699  0.86464885    -0.83900
C342        C  0.37687778  0.35740338  0.84748316     0.96700
O343        O  0.35874582  0.31685065  0.85306861    -0.83900
O344        O  0.33825210  0.23821265  0.89016012    -0.86500
C345        C  0.31722912  0.22917695  0.92364821     1.01200
O346        O  0.33369943  0.25292167  0.95517255    -0.79300
O347        O  0.38989474  0.33121817  0.99689256    -0.79500
C348        C  0.38193765  0.36033874  0.98446155     1.01100
Cr349      Cr  0.43888466  0.37336978  0.91682045     1.93700
Cr350      Cr  0.39312020  0.28764022  0.86849994     1.93200
Cr351      Cr  0.39857338  0.28737645  0.96469037     1.39100
O352        O  0.40998955  0.31565072  0.91666545    -1.24500
O353        O  0.49105076  0.11382494  0.88324339    -0.86800
O354        O  0.47433627  0.09196997  0.96698173    -0.83800
C355        C  0.48380573  0.12696424  0.98532659     0.96700
O356        O  0.45982587  0.14347057  0.98046496    -0.83900
O357        O  0.40348367  0.16474577  0.94130211    -0.86500
C358        C  0.41671593  0.18728523  0.90877443     1.01200
O359        O  0.42539656  0.17228456  0.87695313    -0.78100
O360        O  0.45038471  0.11791517  0.83447120    -0.79500
C361        C  0.48698846  0.12445273  0.84694119     1.01100
O362        O  0.41613936  0.03240429  0.86187629    -0.86800
O363        O  0.39433103  0.01570577  0.94527261    -0.83900
C364        C  0.38059744  0.01889499  0.98037572     0.96700
O365        O  0.38627948  0.05520986  0.99273660    -0.83900
O366        O  0.33357231  0.07897304  0.94860575    -0.86500
C367        C  0.31762883  0.08658332  0.91684048     1.01200
O368        O  0.33969154  0.10054646  0.88421501    -0.79300
O369        O  0.36368232  0.04553895  0.84777724    -0.79500
C370        C  0.38132101  0.02265666  0.84312110     1.01100
Cr371      Cr  0.44123393  0.06616386  0.91429749     1.93700
Cr372      Cr  0.39735212  0.10918331  0.96155914     1.93200
Cr373      Cr  0.39647341  0.10779787  0.86531978     1.39100
O374        O  0.41152939  0.09455358  0.91373934    -1.24500
O375        O  0.12735312  0.01489844  0.88831719    -0.86800
O376        O  0.12259098  0.03158137  0.97178962    -0.83800
C377        C  0.14770365  0.02253077  0.99155412     0.96700
O378        O  0.18832884  0.04576265  0.98746206    -0.83900
O379        O  0.26775130  0.10118708  0.95094380    -0.86500
C380        C  0.27572681  0.08628919  0.91888937     1.01200
O381        O  0.25178875  0.07744060  0.88725441    -0.79300
O382        O  0.17629915  0.05382822  0.84163939    -0.79500
C383        C  0.14481122  0.01792876  0.85354605     1.01100
O384        O  0.12460252  0.09164440  0.86652862    -0.86800
O385        O  0.12927263  0.11332708  0.94989303    -0.83900
C386        C  0.14388586  0.12426328  0.98611021     0.96700
O387        O  0.17347660  0.11743188  0.99913677    -0.83900
O388        O  0.25190254  0.17201335  0.95639782    -0.86500
C389        C  0.27581905  0.18674798  0.92467270     1.01200
O390        O  0.26765200  0.16348876  0.89285674    -0.79300
O391        O  0.19099237  0.14195500  0.85228635    -0.79500
C392        C  0.15054728  0.12600971  0.84749231     1.01100
Cr393      Cr  0.13133767  0.06549025  0.91929275     1.93700
Cr394      Cr  0.21747604  0.10772313  0.96892292     1.93200
Cr395      Cr  0.21870124  0.10774497  0.87275562     1.39100
O396        O  0.18939783  0.09364376  0.92028652    -1.24500
O397        O  0.38570952  0.97154806  0.02868829    -0.86800
O398        O  0.37914806  0.98672674  0.11277953    -0.83800
C399        C  0.36399856  0.98204408  0.14898957     0.96700
O400        O  0.33329170  0.94548730  0.16050238    -0.83900
O401        O  0.25620996  0.92384014  0.11504388    -0.86500
C402        C  0.23270412  0.91651133  0.08311588     1.01200
O403        O  0.24099296  0.90300752  0.05027795    -0.79300
O404        O  0.32023198  0.95767959  0.01276116    -0.79500
C405        C  0.36091977  0.98079735  0.00871232     1.01100
O406        O  0.37876246  0.88988978  0.04960894    -0.86800
O407        O  0.38336622  0.91063685  0.13326427    -0.83900
C408        C  0.35787424  0.87557108  0.15148918     0.96700
O409        O  0.31743212  0.85838882  0.14578139    -0.83900
O410        O  0.24019505  0.83851690  0.10735441    -0.86500
C411        C  0.23118400  0.81590962  0.07509957     1.01200
O412        O  0.25461350  0.83093372  0.04312227    -0.79300
O413        O  0.33356577  0.88501484  0.00086817    -0.79500
C414        C  0.36367195  0.87878667  0.01354639     1.01100
Cr415      Cr  0.37638900  0.93708515  0.08088186     1.93700
Cr416      Cr  0.28967077  0.89319669  0.12777855     1.93200
Cr417      Cr  0.29022841  0.89542722  0.03131211     1.39100
O418        O  0.31843020  0.90853095  0.07989627    -1.24500
O419        O  0.03530885  0.91310843  0.03238992    -0.86800
O420        O  0.01753339  0.89047239  0.11603964    -0.83800
C421        C  0.02141091  0.88015685  0.15251818     0.96700
O422        O  0.05791571  0.88700153  0.16553833    -0.83900
O423        O  0.08298283  0.83198396  0.12453079    -0.86500
C424        C  0.09078240  0.81642299  0.09251552     1.01200
O425        O  0.10381088  0.83860477  0.05985352    -0.79300
O426        O  0.04897243  0.86096579  0.01965141    -0.79500
C427        C  0.02574374  0.87819691  0.01396100     1.01100
O428        O  0.11491799  0.98832366  0.05506800    -0.86800
O429        O  0.09186286  0.97173689  0.13802847    -0.83900
C430        C  0.12675859  0.98197684  0.15676729     0.96700
O431        O  0.14461535  0.95921634  0.15256380    -0.83900
O432        O  0.16885907  0.90353399  0.11765484    -0.86500
C433        C  0.19090875  0.91665085  0.08496779     1.01200
O434        O  0.17500295  0.92371962  0.05281122    -0.79300
O435        O  0.12330380  0.94858440  0.00801796    -0.79500
C436        C  0.12857894  0.98483702  0.02007039     1.01100
Cr437      Cr  0.06762432  0.93813762  0.08553462     1.93700
Cr438      Cr  0.11194668  0.89669372  0.13556136     1.93200
Cr439      Cr  0.11128338  0.89443508  0.03927804     1.39100
O440        O  0.09714485  0.90955461  0.08676653    -1.24500
O441        O  0.01920769  0.62791846  0.11523440    -0.86800
O442        O  0.03453671  0.62210053  0.03126388    -0.83800
C443        C  0.02303184  0.64675508  0.01425914     0.96700
O444        O  0.04480935  0.68710241  0.02090167    -0.83900
O445        O  0.10268172  0.76538553  0.05816787    -0.86500
C446        C  0.09054257  0.77426871  0.09167084     1.01200
O447        O  0.08352393  0.75052777  0.12316810    -0.79300
O448        O  0.06116954  0.67172392  0.16412893    -0.79500
C449        C  0.02403851  0.64269752  0.15154933     1.01100
O450        O  0.09433587  0.62181808  0.13621754    -0.86800
O451        O  0.11617759  0.62907414  0.05250516    -0.83900
C452        C  0.12575608  0.64377257  0.01616112     0.96700
O453        O  0.11680698  0.67220021  0.00361394    -0.83900
O454        O  0.17279482  0.75022818  0.04490493    -0.86500
C455        C  0.18947260  0.77394463  0.07634000     1.01200
O456        O  0.16859525  0.76518685  0.10992398    -0.79300
O457        O  0.14843360  0.68696217  0.14735090    -0.79500
C458        C  0.13039494  0.64651638  0.15336779     1.01100
Cr459      Cr  0.06848104  0.63014296  0.08381174     1.93700
Cr460      Cr  0.10809552  0.71602196  0.03603824     1.93200
Cr461      Cr  0.11386597  0.71587411  0.13205789     1.39100
O462        O  0.09697415  0.68780831  0.08401098    -1.24500
O463        O  0.47425664  0.88187402  0.30177971    -0.86800
O464        O  0.48820851  0.87599546  0.21778976    -0.83800
C465        C  0.48339409  0.86112306  0.18153494     0.96700
O466        O  0.44628627  0.83172438  0.16925046    -0.83900
O467        O  0.42412984  0.75320292  0.21098107    -0.86500
C468        C  0.41655327  0.72913592  0.24238371     1.01200
O469        O  0.40447164  0.73812683  0.27583389    -0.79300
O470        O  0.46327394  0.81670339  0.31282581    -0.79500
C471        C  0.48589135  0.85718443  0.31860120     1.01100
O472        O  0.39234624  0.87594440  0.28219876    -0.86800
O473        O  0.41246265  0.88164458  0.19796366    -0.83900
C474        C  0.37673288  0.85656420  0.18039549     0.96700
O475        O  0.35900176  0.81617325  0.18628635    -0.83900
O476        O  0.33905743  0.73844146  0.22409322    -0.86500
C477        C  0.31808515  0.72961977  0.25759939     1.01200
O478        O  0.33465157  0.75354237  0.28905755    -0.79300
O479        O  0.39123129  0.83234175  0.33074591    -0.79500
C480        C  0.38294016  0.86147947  0.31866229     1.01100
Cr481      Cr  0.43928259  0.87383703  0.24992657     1.93700
Cr482      Cr  0.39373707  0.78770927  0.20185553     1.93200
Cr483      Cr  0.39958541  0.78798476  0.29798151     1.39100
O484        O  0.41059889  0.81608456  0.24989103    -1.24500
O485        O  0.49107250  0.61405490  0.21724305    -0.86800
O486        O  0.47284911  0.59176876  0.30047828    -0.83800
C487        C  0.48184060  0.62662278  0.31867986     0.96700
O488        O  0.45772857  0.64294191  0.31341945    -0.83900
O489        O  0.40176484  0.66376935  0.27326199    -0.86500
C490        C  0.41592506  0.68673959  0.24110771     1.01200
O491        O  0.42484907  0.67186429  0.20933005    -0.78100
O492        O  0.45119672  0.61825846  0.16773621    -0.79500
C493        C  0.48762065  0.62516289  0.18098696     1.01100
O494        O  0.41707092  0.53204476  0.19492001    -0.86800
O495        O  0.39411433  0.51529575  0.27849255    -0.83900
C496        C  0.38024420  0.51865999  0.31350391     0.96700
O497        O  0.38464362  0.55467822  0.32508848    -0.83900
O498        O  0.33228585  0.57771094  0.27922847    -0.86500
C499        C  0.31686739  0.58570972  0.24730992     1.01200
O500        O  0.33922880  0.59955974  0.21484016    -0.79300
O501        O  0.36494712  0.54510902  0.17880707    -0.79500
C502        C  0.38289999  0.52234111  0.17497936     1.01100
Cr503      Cr  0.44092296  0.56594343  0.24754623     1.93700
Cr504      Cr  0.39566262  0.60831723  0.29349062     1.93200
Cr505      Cr  0.39659359  0.60734054  0.19721508     1.39100
O506        O  0.41078259  0.59390276  0.24606892    -1.24500
O507        O  0.12702202  0.51612488  0.22209841    -0.86800
O508        O  0.12309043  0.53339871  0.30595379    -0.83800
C509        C  0.14775818  0.52277830  0.32421934     0.96700
O510        O  0.18823623  0.54447478  0.31852681    -0.83900
O511        O  0.26747056  0.59983309  0.28243443    -0.86500
C512        C  0.27554246  0.58643578  0.24948733     1.01200
O513        O  0.25222706  0.57967235  0.21771180    -0.79300
O514        O  0.17517878  0.55540616  0.17476723    -0.79500
C515        C  0.14411455  0.51929796  0.18706448     1.01100
O516        O  0.12391104  0.59236259  0.20059080    -0.86800
O517        O  0.13172807  0.61531892  0.28386919    -0.83900
C518        C  0.14616029  0.62505963  0.32023597     0.96700
O519        O  0.17493551  0.61691875  0.33310155    -0.83900
O520        O  0.25370743  0.67161045  0.29087536    -0.86500
C521        C  0.27647004  0.68732954  0.25860441     1.01200
O522        O  0.26704375  0.66519914  0.22584883    -0.79300
O523        O  0.18977572  0.64367935  0.18680765    -0.79500
C524        C  0.14932414  0.62708045  0.18186629     1.01100
Cr525      Cr  0.13176783  0.56686332  0.25321833     1.93700
Cr526      Cr  0.21820698  0.60698818  0.30176369     1.93200
Cr527      Cr  0.21817006  0.60953361  0.20549594     1.39100
O528        O  0.18975950  0.59450376  0.25341338    -1.24500
O529        O  0.38527397  0.97231603  0.36462802    -0.86800
O530        O  0.37915200  0.98615239  0.44886218    -0.83800
C531        C  0.36417420  0.98124697  0.48511864     0.96700
O532        O  0.33453703  0.94427836  0.49721153    -0.83900
O533        O  0.25677516  0.92358984  0.45460165    -0.86500
C534        C  0.23284548  0.91610495  0.42314513     1.01200
O535        O  0.24150162  0.90320844  0.38993314    -0.79300
O536        O  0.32004096  0.96097185  0.35290358    -0.79500
C537        C  0.36052799  0.98363830  0.34738240     1.01100
O538        O  0.37898833  0.89018268  0.38432174    -0.86800
O539        O  0.38412931  0.91019441  0.46849099    -0.83900
C540        C  0.35875995  0.87463445  0.48613983     0.96700
O541        O  0.31835509  0.85717249  0.48022114    -0.83900
O542        O  0.24089946  0.83799612  0.44204340    -0.86500
C543        C  0.23233229  0.81658771  0.40888385     1.01200
O544        O  0.25649151  0.83275056  0.37749344    -0.79300
O545        O  0.33520474  0.88867423  0.33578218    -0.79500
C546        C  0.36430497  0.88040257  0.34795087     1.01100
Cr547      Cr  0.37687548  0.93723255  0.41653323     1.93700
Cr548      Cr  0.29045948  0.89234624  0.46429024     1.93200
Cr549      Cr  0.29110104  0.89757098  0.36819837     1.39100
O550        O  0.31911374  0.90882370  0.41636116    -1.24500
O551        O  0.01791473  0.89119386  0.38553675    -0.86800
O552        O  0.03274770  0.91219478  0.46962684    -0.83800
C553        C  0.02478450  0.87876518  0.48997849     0.96700
O554        O  0.04895560  0.86238566  0.48646505    -0.83900
O555        O  0.10399231  0.83892054  0.44944363    -0.86500
C556        C  0.09021803  0.81670757  0.41697094     1.01200
O557        O  0.08278593  0.83229876  0.38481139    -0.79300
O558        O  0.05880080  0.88406681  0.33907889    -0.79500
C559        C  0.02213664  0.87817893  0.35035847     1.01100
O560        O  0.09373203  0.97199203  0.36585917    -0.86800
O561        O  0.11363355  0.98841884  0.44999422    -0.83900
C562        C  0.12540883  0.98483320  0.48598806     0.96700
O563        O  0.12054938  0.94891035  0.49825192    -0.83900
O564        O  0.17557421  0.92477487  0.45580135    -0.86500
C565        C  0.19075157  0.91621164  0.42397176     1.01200
O566        O  0.16814257  0.90270769  0.39162310    -0.79300
O567        O  0.14586699  0.95825778  0.35258493    -0.79500
C568        C  0.12882720  0.98176182  0.34765883     1.01100
Cr569      Cr  0.06734187  0.93822232  0.41792010     1.93700
Cr570      Cr  0.11091299  0.89542368  0.46777142     1.93200
Cr571      Cr  0.11235986  0.89586053  0.37138745     1.39100
O572        O  0.09693821  0.90964863  0.41908374    -1.24500
O573        O  0.01856424  0.62727688  0.44476736    -0.86800
O574        O  0.03598386  0.62182746  0.36171742    -0.83800
C575        C  0.02416556  0.64609766  0.34442642     0.96700
O576        O  0.04661613  0.68667774  0.34925182    -0.83900
O577        O  0.10340951  0.76635611  0.38295488    -0.86500
C578        C  0.09014875  0.77508834  0.41550865     1.01200
O579        O  0.08303482  0.75221523  0.44769690    -0.79300
O580        O  0.05761026  0.67565887  0.49202294    -0.79500
C581        C  0.02155974  0.64464936  0.47956528     1.01100
O582        O  0.09379647  0.62306688  0.46810691    -0.86800
O583        O  0.11790391  0.63002755  0.38507814    -0.83900
C584        C  0.12760538  0.64394194  0.34853657     0.96700
O585        O  0.11907442  0.67223663  0.33507593    -0.83900
O586        O  0.17437415  0.75179539  0.37596641    -0.86500
C587        C  0.19014280  0.77491731  0.40803560     1.01200
O588        O  0.16813006  0.76586464  0.44089700    -0.79300
O589        O  0.14553301  0.68875259  0.48176740    -0.79500
C590        C  0.12853511  0.64817437  0.48690533     1.01100
Cr591      Cr  0.06923586  0.63086971  0.41478097     1.93700
Cr592      Cr  0.10965649  0.71636614  0.36520963     1.93200
Cr593      Cr  0.11218894  0.71778812  0.46150266     1.39100
O594        O  0.09729711  0.68880036  0.41397448    -1.24500
O595        O  0.47395586  0.88226209  0.63744325    -0.86800
O596        O  0.48862882  0.87545289  0.55360852    -0.83800
C597        C  0.48370024  0.86038556  0.51740495     0.96700
O598        O  0.44680829  0.83035735  0.50568225    -0.83900
O599        O  0.42476570  0.75319175  0.55091807    -0.86500
C600        C  0.41739952  0.72968297  0.58284752     1.01200
O601        O  0.40377429  0.73792294  0.61559431    -0.79300
O602        O  0.46073635  0.81672398  0.65132829    -0.79500
C603        C  0.48434271  0.85727474  0.65563447     1.01100
O604        O  0.39265713  0.87669098  0.61630579    -0.86800
O605        O  0.41307112  0.88086138  0.53281595    -0.83900
C606        C  0.37757824  0.85561423  0.51502377     0.96700
O607        O  0.35990936  0.81519174  0.52098059    -0.83900
O608        O  0.33963098  0.73792676  0.55954966    -0.86500
C609        C  0.31737865  0.72927089  0.59207054     1.01200
O610        O  0.33288867  0.75305315  0.62383611    -0.79300
O611        O  0.38877272  0.83241027  0.66551351    -0.79500
C612        C  0.38196789  0.86212638  0.65254579     1.01100
Cr613      Cr  0.43948158  0.87366291  0.58522551     1.93700
Cr614      Cr  0.39439028  0.78698169  0.53850376     1.93200
Cr615      Cr  0.39773265  0.78792611  0.63474542     1.39100
O616        O  0.41029515  0.81581190  0.58619291    -1.24500
O617        O  0.47497261  0.59091454  0.52949259    -0.86800
O618        O  0.49015658  0.61131750  0.61371764    -0.83800
C619        C  0.48641687  0.62547779  0.64853316     0.96700
O620        O  0.45020232  0.62123497  0.65923104    -0.83900
O621        O  0.42494343  0.67228349  0.61340214    -0.86500
C622        C  0.41772936  0.68801435  0.58116549     1.01200
O623        O  0.40470496  0.66594231  0.54852314    -0.78100
O624        O  0.45970495  0.64140172  0.51249121    -0.79500
C625        C  0.48357006  0.62461060  0.50948679     1.01100
O626        O  0.39369566  0.51541398  0.54820867    -0.86800
O627        O  0.41394054  0.53132821  0.63224553    -0.83900
C628        C  0.37937486  0.52217404  0.65087937     0.96700
O629        O  0.36288594  0.54626070  0.64658829    -0.83900
O630        O  0.34015108  0.60098203  0.60717812    -0.86500
C631        C  0.31765478  0.58806401  0.57480067     1.01200
O632        O  0.33289237  0.58023103  0.54251456    -0.79300
O633        O  0.38760521  0.55539305  0.49996446    -0.79500
C634        C  0.38236588  0.51927305  0.51209165     1.01100
Cr635      Cr  0.44028525  0.56515525  0.58069301     1.93700
Cr636      Cr  0.39614316  0.60862368  0.62716667     1.93200
Cr637      Cr  0.39759909  0.60901682  0.53066804     1.39100
O638        O  0.41133134  0.59453056  0.57948989    -1.24500
O639        O  0.12818443  0.51648657  0.55310100    -0.86800
O640        O  0.12296716  0.53165697  0.63710818    -0.83800
C641        C  0.14802531  0.52162096  0.65562688     0.96700
O642        O  0.18842004  0.54340924  0.64905177    -0.83900
O643        O  0.26678949  0.60014122  0.60993659    -0.86500
C644        C  0.27554804  0.58799755  0.57626976     1.01200
O645        O  0.25172245  0.58106667  0.54496459    -0.79300
O646        O  0.17349596  0.55755820  0.50466686    -0.79500
C647        C  0.14445501  0.52052473  0.51757926     1.01100
O648        O  0.12281289  0.59250479  0.53248936    -0.86800
O649        O  0.12988129  0.61331025  0.61650704    -0.83900
C650        C  0.14491043  0.62310148  0.65272632     0.96700
O651        O  0.17414761  0.61519252  0.66486797    -0.83900
O652        O  0.25198461  0.67086404  0.62293258    -0.86500
C653        C  0.27537492  0.68740764  0.59128527     1.01200
O654        O  0.26627862  0.66626068  0.55786269    -0.79300
O655        O  0.18814358  0.64584498  0.52069651    -0.79500
C656        C  0.14770084  0.62855762  0.51526440     1.01100
Cr657      Cr  0.13108172  0.56598930  0.58470909     1.93700
Cr658      Cr  0.21760417  0.60617608  0.63236100     1.93200
Cr659      Cr  0.21698341  0.61113217  0.53623039     1.39100
O660        O  0.18894344  0.59442060  0.58444289    -1.24500
O661        O  0.38425689  0.97334221  0.69640584    -0.86800
O662        O  0.37973208  0.98856532  0.77978158    -0.83800
C663        C  0.36254496  0.98499388  0.81471770     0.96700
O664        O  0.33123477  0.94885797  0.82659093    -0.83900
O665        O  0.25514533  0.92497127  0.78169812    -0.86500
C666        C  0.23187474  0.91741254  0.74973038     1.01200
O667        O  0.24009236  0.90354976  0.71729432    -0.79300
O668        O  0.31901956  0.96159440  0.68349463    -0.79500
C669        C  0.35959443  0.98480903  0.67924372     1.01100
O670        O  0.37737826  0.89104847  0.71723294    -0.86800
O671        O  0.38333556  0.91228556  0.80063723    -0.83900
C672        C  0.35787360  0.87744955  0.81919708     0.96700
O673        O  0.31733760  0.86096358  0.81432955    -0.83900
O674        O  0.24060059  0.83950921  0.77383460    -0.86500
C675        C  0.23225503  0.81736407  0.74118444     1.01200
O676        O  0.25578686  0.83336150  0.70926673    -0.79300
O677        O  0.33499461  0.89001916  0.66761178    -0.79500
C678        C  0.36340796  0.88142889  0.68073423     1.01100
Cr679      Cr  0.37593549  0.93869448  0.74833564     1.93700
Cr680      Cr  0.28892963  0.89505796  0.79501014     1.93200
Cr681      Cr  0.29039348  0.89832573  0.69879547     1.39100
O682        O  0.31804514  0.91048537  0.74752559    -1.24500
O683        O  0.03489200  0.91244149  0.69965441    -0.86800
O684        O  0.01780028  0.89103190  0.78295696    -0.83800
C685        C  0.02127882  0.87919625  0.81887567     0.96700
O686        O  0.05716536  0.88434059  0.83150464    -0.83900
O687        O  0.08225993  0.83037220  0.78865523    -0.86500
C688        C  0.09130569  0.81572486  0.75678929     1.01200
O689        O  0.10527307  0.83888211  0.72475806    -0.79300
O690        O  0.04885339  0.86049711  0.68628971    -0.79500
C691        C  0.02501764  0.87724647  0.68169873     1.01100
O692        O  0.11486307  0.98846346  0.72022992    -0.86800
O693        O  0.09286046  0.97208691  0.80436767    -0.83900
C694        C  0.12622279  0.98023270  0.82494612     0.96700
O695        O  0.14322315  0.95661657  0.82106736    -0.83900
O696        O  0.16782993  0.90260077  0.78354726    -0.86500
C697        C  0.19025697  0.91715977  0.75130606     1.01200
O698        O  0.17476055  0.92486845  0.71922700    -0.79300
O699        O  0.12249733  0.94817146  0.67343930    -0.79500
C700        C  0.12804072  0.98463104  0.68496424     1.01100
Cr701      Cr  0.06791188  0.93826765  0.75199077     1.93700
Cr702      Cr  0.11099772  0.89484204  0.80154305     1.93200
Cr703      Cr  0.11130911  0.89456300  0.70523683     1.39100
O704        O  0.09701301  0.90922905  0.75299126    -1.24500
O705        O  0.02010612  0.62782126  0.78082338    -0.86800
O706        O  0.03499800  0.62047802  0.69661929    -0.83800
C707        C  0.02545648  0.64541628  0.67719015     0.96700
O708        O  0.04768936  0.68594119  0.68306240    -0.83900
O709        O  0.10387742  0.76481208  0.72213084    -0.86500
C710        C  0.09136099  0.77361091  0.75547952     1.01200
O711        O  0.08403670  0.74975107  0.78702150    -0.79300
O712        O  0.06233062  0.67187456  0.82930323    -0.79500
C713        C  0.02509726  0.64290741  0.81705956     1.01100
O714        O  0.09548249  0.62168822  0.80193733    -0.86800
O715        O  0.11627509  0.62696684  0.71787614    -0.83900
C716        C  0.12671855  0.64200488  0.68168626     0.96700
O717        O  0.11980742  0.67181306  0.66924635    -0.83900
O718        O  0.17506681  0.75060785  0.71055623    -0.86500
C719        C  0.19096447  0.77464364  0.74194284     1.01200
O720        O  0.16951944  0.76541991  0.77518038    -0.79300
O721        O  0.14938682  0.68704062  0.81311253    -0.79500
C722        C  0.13130105  0.64659010  0.81946891     1.01100
Cr723      Cr  0.06925348  0.62937797  0.74929005     1.93700
Cr724      Cr  0.11036301  0.71551731  0.70062200     1.93200
Cr725      Cr  0.11477614  0.71568973  0.79686428     1.39100
O726        O  0.09825842  0.68723516  0.74883424    -1.24500
O727        O  0.47405491  0.88214372  0.96889148    -0.86800
O728        O  0.48861949  0.87645790  0.88503270    -0.83800
C729        C  0.48386904  0.86165835  0.84877596     0.96700
O730        O  0.44672219  0.83265361  0.83617423    -0.83900
O731        O  0.42471805  0.75407944  0.87750431    -0.86500
C732        C  0.41774370  0.73030873  0.90896423     1.01200
O733        O  0.40514742  0.73884561  0.94237211    -0.79300
O734        O  0.46352282  0.81708514  0.97959752    -0.79500
C735        C  0.48569723  0.85751402  0.98582001     1.01100
O736        O  0.39216055  0.87529996  0.94845242    -0.86800
O737        O  0.41304146  0.88245913  0.86463139    -0.83900
C738        C  0.37695138  0.85774078  0.84741910     0.96700
O739        O  0.35924289  0.81724441  0.85301579    -0.83900
O740        O  0.33940394  0.73908243  0.89064092    -0.86500
C741        C  0.31851098  0.73040599  0.92417158     1.01200
O742        O  0.33522153  0.75422081  0.95562777    -0.79300
O743        O  0.39172003  0.83217260  0.99721131    -0.79500
C744        C  0.38288846  0.86071069  0.98483040     1.01100
Cr745      Cr  0.43951617  0.87415710  0.91671937     1.93700
Cr746      Cr  0.39407875  0.78847276  0.86842959     1.93200
Cr747      Cr  0.40002559  0.78829113  0.96452157     1.39100
O748        O  0.41100860  0.81652385  0.91651487    -1.24500
O749        O  0.49229060  0.61501935  0.88333749    -0.86800
O750        O  0.47586039  0.59379007  0.96700831    -0.83800
C751        C  0.48448039  0.62816021  0.98607775     0.96700
O752        O  0.46031945  0.64446911  0.98112367    -0.83900
O753        O  0.40483892  0.66599625  0.94069493    -0.86500
C754        C  0.41818430  0.68851328  0.90825225     1.01200
O755        O  0.42692784  0.67351702  0.87639520    -0.78100
O756        O  0.45182980  0.61881133  0.83423578    -0.79500
C757        C  0.48831322  0.62523105  0.84689805     1.01100
O758        O  0.41732480  0.53320573  0.86217782    -0.86800
O759        O  0.39642708  0.51719023  0.94598193    -0.83900
C760        C  0.38227426  0.52036782  0.98086657     0.96700
O761        O  0.38660721  0.55635262  0.99258841    -0.83900
O762        O  0.33446087  0.58045512  0.94763092    -0.86500
C763        C  0.31870196  0.58831983  0.91586630     1.01200
O764        O  0.34091892  0.60209377  0.88326138    -0.79300
O765        O  0.36524582  0.54670321  0.84709428    -0.79500
C766        C  0.38281591  0.52366181  0.84283376     1.01100
Cr767      Cr  0.44266140  0.56753057  0.91446897     1.93700
Cr768      Cr  0.39814121  0.61036674  0.96120438     1.93200
Cr769      Cr  0.39789816  0.60898789  0.86483528     1.39100
O770        O  0.41268722  0.59571407  0.91354206    -1.24500
O771        O  0.12795410  0.51660324  0.88954921    -0.86800
O772        O  0.12333324  0.53354626  0.97342993    -0.83800
C773        C  0.14829616  0.52399455  0.99277781     0.96700
O774        O  0.18889336  0.54666968  0.98794975    -0.83900
O775        O  0.26834355  0.60179172  0.95086292    -0.86500
C776        C  0.27678941  0.58829531  0.91808957     1.01200
O777        O  0.25310409  0.58054394  0.88636671    -0.79300
O778        O  0.17610533  0.55600140  0.84238638    -0.79500
C779        C  0.14500072  0.51987262  0.85446121     1.01100
O780        O  0.12445405  0.59290395  0.86781116    -0.86800
O781        O  0.13055032  0.61519065  0.95128541    -0.83900
C782        C  0.14520105  0.62577791  0.98752263     0.96700
O783        O  0.17493638  0.61898538  0.00031149    -0.83900
O784        O  0.25374524  0.67326895  0.95766691    -0.86500
C785        C  0.27681775  0.68835992  0.92551767     1.01200
O786        O  0.26761969  0.66572098  0.89315984    -0.79300
O787        O  0.19044168  0.64401503  0.85388466    -0.79500
C788        C  0.15001303  0.62740994  0.84872354     1.01100
Cr789      Cr  0.13201943  0.56721672  0.92065502     1.93700
Cr790      Cr  0.21855306  0.60885272  0.96966482     1.93200
Cr791      Cr  0.21881070  0.61006016  0.87329388     1.39100
O792        O  0.19011975  0.59537564  0.92119374    -1.24500
O793        O  0.88789894  0.47230580  0.02871510    -0.86800
O794        O  0.88086719  0.48846929  0.11206251    -0.83800
C795        C  0.86337209  0.48499998  0.14689113     0.96700
O796        O  0.83225633  0.44881196  0.15883028    -0.83900
O797        O  0.75550331  0.42369769  0.11412308    -0.86500
C798        C  0.73279915  0.41693734  0.08179604     1.01200
O799        O  0.74235551  0.40461001  0.04890386    -0.79300
O800        O  0.82264460  0.45901869  0.01285348    -0.79500
C801        C  0.86332360  0.48190089  0.00876887     1.01100
O802        O  0.88055646  0.39065967  0.05123394    -0.86800
O803        O  0.88485982  0.41289565  0.13459038    -0.83900
C804        C  0.85938887  0.37788731  0.15286036     0.96700
O805        O  0.81892912  0.36104696  0.14742075    -0.83900
O806        O  0.74160005  0.33883220  0.10759939    -0.86500
C807        C  0.73206054  0.31675206  0.07490405     1.01200
O808        O  0.75542684  0.33215495  0.04287751    -0.79300
O809        O  0.83580044  0.38579254  0.00203196    -0.79500
C810        C  0.86583110  0.37952657  0.01505621     1.01100
Cr811      Cr  0.87790954  0.43830454  0.08147443     1.93700
Cr812      Cr  0.79021307  0.39466177  0.12769372     1.93200
Cr813      Cr  0.79200934  0.39671562  0.03128532     1.39100
O814        O  0.81965874  0.40980880  0.08013557    -1.24500
O815        O  0.53244772  0.41133748  0.03381005    -0.86800
O816        O  0.51694256  0.38902041  0.11735148    -0.83800
C817        C  0.52138161  0.37834809  0.15346747     0.96700
O818        O  0.55819677  0.38573864  0.16591224    -0.83900
O819        O  0.58273371  0.33178701  0.12289378    -0.86500
C820        C  0.59023256  0.31653234  0.09056487     1.01200
O821        O  0.60317385  0.33891277  0.05804354    -0.79300
O822        O  0.54812551  0.36102662  0.01881308    -0.79500
C823        C  0.52353217  0.37692620  0.01463095     1.01100
O824        O  0.61241324  0.48792857  0.05517992    -0.86800
O825        O  0.59156920  0.47121071  0.13899257    -0.83900
C826        C  0.62634895  0.48108201  0.15804624     0.96700
O827        O  0.64432425  0.45847356  0.15305594    -0.83900
O828        O  0.66867792  0.40336184  0.11625963    -0.86500
C829        C  0.69061324  0.41656426  0.08350255     1.01200
O830        O  0.67453140  0.42378556  0.05154743    -0.79300
O831        O  0.62271878  0.44941729  0.00810910    -0.79500
C832        C  0.62732749  0.48530084  0.02050498     1.01100
Cr833      Cr  0.56619632  0.43720809  0.08636699     1.93700
Cr834      Cr  0.61181720  0.39615774  0.13492033     1.93200
Cr835      Cr  0.61057314  0.39482228  0.03847120     1.39100
O836        O  0.59652467  0.40938639  0.08651293    -1.24500
O837        O  0.51910538  0.12725201  0.11335501    -0.86800
O838        O  0.53468946  0.12242647  0.02992827    -0.83800
C839        C  0.52263025  0.14681729  0.01325344     0.96700
O840        O  0.54481053  0.18733385  0.01910095    -0.83900
O841        O  0.60265390  0.26597018  0.05607567    -0.86500
C842        C  0.59005539  0.27462532  0.08934048     1.01200
O843        O  0.58270037  0.25088378  0.12077512    -0.79300
O844        O  0.55934247  0.17329299  0.16172940    -0.79500
C845        C  0.52270054  0.14359450  0.14874038     1.01100
O846        O  0.59508416  0.12268662  0.13470044    -0.86800
O847        O  0.61688019  0.13002685  0.05092003    -0.83900
C848        C  0.62614828  0.14438017  0.01445559     0.96700
O849        O  0.61728095  0.17288532  0.00194568    -0.83900
O850        O  0.67318591  0.25141299  0.04388888    -0.86500
C851        C  0.68977976  0.27491665  0.07557334     1.01200
O852        O  0.66847517  0.26606482  0.10896879    -0.79300
O853        O  0.64771140  0.18820658  0.14743795    -0.79500
C854        C  0.63053670  0.14771537  0.15270217     1.01100
Cr855      Cr  0.56899141  0.13069687  0.08226335     1.93700
Cr856      Cr  0.60830966  0.21664674  0.03440748     1.93200
Cr857      Cr  0.61310085  0.21677560  0.13056500     1.39100
O858        O  0.59701249  0.18847211  0.08249349    -1.24500
O859        O  0.97651482  0.38274329  0.30140078    -0.86800
O860        O  0.98974353  0.37584936  0.21752567    -0.83800
C861        C  0.98438423  0.36082309  0.18131022     0.96700
O862        O  0.94696500  0.33202466  0.16916346    -0.83900
O863        O  0.92474250  0.25364444  0.21096880    -0.86500
C864        C  0.91831193  0.23028069  0.24272306     1.01200
O865        O  0.90660031  0.23935688  0.27624538    -0.79300
O866        O  0.96536703  0.31756038  0.31253924    -0.79500
C867        C  0.98800571  0.35801008  0.31823309     1.01100
O868        O  0.89498502  0.37687068  0.28223002    -0.86800
O869        O  0.91467022  0.38285813  0.19800290    -0.83900
C870        C  0.87834947  0.35826187  0.18119284     0.96700
O871        O  0.86022410  0.31779768  0.18719506    -0.83900
O872        O  0.83984086  0.23949826  0.22478928    -0.86500
C873        C  0.81924927  0.23051470  0.25855491     1.01200
O874        O  0.83646668  0.25412171  0.29008144    -0.79300
O875        O  0.89374699  0.33310240  0.33080485    -0.79500
C876        C  0.88537628  0.36202077  0.31854645     1.01100
Cr877      Cr  0.94144562  0.37458452  0.24979377     1.93700
Cr878      Cr  0.89457968  0.28850266  0.20217759     1.93200
Cr879      Cr  0.90166779  0.28885662  0.29822167     1.39100
O880        O  0.91225670  0.31685739  0.25006431    -1.24500
O881        O  0.99177559  0.11429774  0.21703651    -0.86800
O882        O  0.97511658  0.09269283  0.30042986    -0.83800
C883        C  0.98448137  0.12752533  0.31884930     0.96700
O884        O  0.96025772  0.14383981  0.31443526    -0.83900
O885        O  0.90509748  0.16592616  0.27455410    -0.86500
C886        C  0.91833497  0.18832960  0.24196472     1.01200
O887        O  0.92656032  0.17310732  0.21010768    -0.78100
O888        O  0.95153838  0.11892033  0.16819521    -0.79500
C889        C  0.98797895  0.12540687  0.18088757     1.01100
O890        O  0.91673824  0.03259187  0.19575572    -0.86800
O891        O  0.89547638  0.01636561  0.28002820    -0.83900
C892        C  0.88137551  0.01969796  0.31497343     0.96700
O893        O  0.88582495  0.05582800  0.32645443    -0.83900
O894        O  0.83409112  0.08075784  0.28127853    -0.86500
C895        C  0.81832976  0.08813941  0.24916393     1.01200
O896        O  0.84055548  0.10154205  0.21657650    -0.79300
O897        O  0.86514380  0.04665554  0.18026573    -0.79500
C898        C  0.88273628  0.02368046  0.17582289     1.01100
Cr899      Cr  0.94189035  0.06669615  0.24814462     1.93700
Cr900      Cr  0.89786183  0.11006145  0.29490859     1.93200
Cr901      Cr  0.89758190  0.10868759  0.19849273     1.39100
O902        O  0.91211792  0.09512771  0.24722453    -1.24500
O903        O  0.62711827  0.01724617  0.22084182    -0.86800
O904        O  0.62174587  0.03315546  0.30508899    -0.83800
C905        C  0.64620835  0.02296124  0.32445367     0.96700
O906        O  0.68683275  0.04500625  0.31946476    -0.83900
O907        O  0.76702305  0.10013454  0.28391376    -0.86500
C908        C  0.77636482  0.08807291  0.25082444     1.01200
O909        O  0.75364452  0.08178410  0.21858224    -0.79300
O910        O  0.67630404  0.05676920  0.17436435    -0.79500
C911        C  0.64450105  0.02070437  0.18590685     1.01100
O912        O  0.62419513  0.09361785  0.20000397    -0.86800
O913        O  0.63045814  0.11536735  0.28360826    -0.83900
C914        C  0.64493236  0.12526388  0.31997328     0.96700
O915        O  0.67421547  0.11787810  0.33274817    -0.83900
O916        O  0.75422404  0.17247289  0.29168687    -0.86500
C917        C  0.77713720  0.18839869  0.25946519     1.01200
O918        O  0.76732316  0.16665821  0.22647944    -0.79300
O919        O  0.69013258  0.14492777  0.18649860    -0.79500
C920        C  0.64964796  0.12836970  0.18137063     1.01100
Cr921      Cr  0.63148885  0.06753860  0.25254088     1.93700
Cr922      Cr  0.71760133  0.10763134  0.30226351     1.93200
Cr923      Cr  0.71878235  0.11093868  0.20578177     1.39100
O924        O  0.68968292  0.09539502  0.25347443    -1.24500
O925        O  0.88702859  0.47263592  0.36300832    -0.86800
O926        O  0.87998889  0.48700241  0.44697206    -0.83800
C927        C  0.86433822  0.48246847  0.48289871     0.96700
O928        O  0.83365489  0.44585464  0.49439793    -0.83900
O929        O  0.75670078  0.42372242  0.44837779    -0.86500
C930        C  0.73348273  0.41671313  0.41624401     1.01200
O931        O  0.74199580  0.40317922  0.38352821    -0.79300
O932        O  0.82141160  0.45784851  0.34639973    -0.79500
C933        C  0.86206851  0.48139018  0.34258869     1.01100
O934        O  0.88083781  0.39101710  0.38342743    -0.86800
O935        O  0.88441558  0.41055574  0.46738503    -0.83900
C936        C  0.85885857  0.37548532  0.48575910     0.96700
O937        O  0.81838368  0.35860409  0.48024474    -0.83900
O938        O  0.74103992  0.33824665  0.44098988    -0.86500
C939        C  0.73200343  0.31579612  0.40862898     1.01200
O940        O  0.75572714  0.33099610  0.37675555    -0.79300
O941        O  0.83526178  0.38544221  0.33478592    -0.79500
C942        C  0.86584202  0.37986324  0.34733266     1.01100
Cr943      Cr  0.87762247  0.43760361  0.41503953     1.93700
Cr944      Cr  0.79042581  0.39326491  0.46157240     1.93200
Cr945      Cr  0.79153610  0.39562017  0.36504420     1.39100
O946        O  0.81955326  0.40871945  0.41379512    -1.24500
O947        O  0.53372017  0.41171762  0.36694754    -0.86800
O948        O  0.51736475  0.38891274  0.45042398    -0.83800
C949        C  0.52181773  0.37870441  0.48675860     0.96700
O950        O  0.55859791  0.38608379  0.49927379    -0.83900
O951        O  0.58407910  0.33227417  0.45661127    -0.86500
C952        C  0.59164034  0.31694193  0.42424780     1.01200
O953        O  0.60473065  0.33941784  0.39181986    -0.79300
O954        O  0.54956004  0.36140397  0.35248414    -0.79500
C955        C  0.52503565  0.37734951  0.34805504     1.01100
O956        O  0.61248586  0.48820185  0.38827032    -0.86800
O957        O  0.59099373  0.47115733  0.47192329    -0.83900
C958        C  0.62583459  0.48157230  0.49090915     0.96700
O959        O  0.64422788  0.45926113  0.48645019    -0.83900
O960        O  0.66966875  0.40437917  0.45055375    -0.86500
C961        C  0.69170724  0.41726512  0.41786010     1.01200
O962        O  0.67583057  0.42456445  0.38573860    -0.79300
O963        O  0.62353887  0.44981116  0.34161119    -0.79500
C964        C  0.62719221  0.48548093  0.35349848     1.01100
Cr965      Cr  0.56657762  0.43727928  0.41949386     1.93700
Cr966      Cr  0.61249662  0.39680778  0.46860285     1.93200
Cr967      Cr  0.61187508  0.39537236  0.37221785     1.39100
O968        O  0.59734837  0.40983004  0.42003195    -1.24500
O969        O  0.51827529  0.12662719  0.44634955    -0.86800
O970        O  0.53494985  0.12082491  0.36277916    -0.83800
C971        C  0.52435884  0.14538624  0.34425658     0.96700
O972        O  0.54556132  0.18583678  0.35094853    -0.83900
O973        O  0.60231559  0.26510738  0.38934001    -0.86500
C974        C  0.59088866  0.27457528  0.42298055     1.01200
O975        O  0.58397226  0.25112980  0.45455210    -0.79300
O976        O  0.55864067  0.17255111  0.49485010    -0.79500
C977        C  0.52190935  0.14306768  0.48173404     1.01100
O978        O  0.59323345  0.12092895  0.46878122    -0.86800
O979        O  0.61625322  0.12865725  0.38502019    -0.83900
C980        C  0.62601762  0.14344484  0.34869385     0.96700
O981        O  0.61789265  0.17236189  0.33612208    -0.83900
O982        O  0.67318308  0.25073629  0.37756351    -0.86500
C983        C  0.68992205  0.27381132  0.40934622     1.01200
O984        O  0.66888443  0.26447253  0.44293521    -0.79300
O985        O  0.64665526  0.18607174  0.48090413    -0.79500
C986        C  0.62892043  0.14561439  0.48652395     1.01100
Cr987      Cr  0.56825932  0.12951341  0.41581674     1.93700
Cr988      Cr  0.60846345  0.21578632  0.36785083     1.93200
Cr989      Cr  0.61300701  0.21562644  0.46411286     1.39100
O990        O  0.59663069  0.18743523  0.41595332    -1.24500
O991        O  0.97618719  0.38346811  0.63609194    -0.86800
O992        O  0.98957050  0.37621194  0.55197637    -0.83800
C993        C  0.98441534  0.36092406  0.51582915     0.96700
O994        O  0.94732893  0.33087734  0.50442254    -0.83900
O995        O  0.92577892  0.25378190  0.54959454    -0.86500
C996        C  0.91985891  0.23093926  0.58175340     1.01200
O997        O  0.90711173  0.23940327  0.61490971    -0.79300
O998        O  0.96323683  0.31814207  0.65038604    -0.79500
C999        C  0.98673348  0.35872687  0.65443740     1.01100
O1000       O  0.89434533  0.37735999  0.61658844    -0.86800
O1001       O  0.91344716  0.38149062  0.53243609    -0.83900
C1002       C  0.87781359  0.35629515  0.51477685     0.96700
O1003       O  0.86029381  0.31581145  0.52076149    -0.83900
O1004       O  0.84042003  0.23809090  0.55951456    -0.86500
C1005       C  0.81885145  0.22873714  0.59255540     1.01200
O1006       O  0.83496432  0.25236694  0.62440189    -0.79300
O1007       O  0.89041665  0.33260372  0.66540192    -0.79500
C1008       C  0.88351633  0.36239106  0.65274756     1.01100
Cr1009     Cr  0.94074477  0.37435421  0.58444977     1.93700
Cr1010     Cr  0.89510689  0.28750654  0.53789343     1.93200
Cr1011     Cr  0.90006718  0.28862577  0.63431438     1.39100
O1012       O  0.91166215  0.31642450  0.58561333    -1.24500
O1013       O  0.97749452  0.09242204  0.52945391    -0.86800
O1014       O  0.99277169  0.11340538  0.61320954    -0.83800
C1015       C  0.98914293  0.12765944  0.64796729     0.96700
O1016       O  0.95300891  0.12323268  0.65891813    -0.83900
O1017       O  0.92892452  0.17449050  0.61225161    -0.86500
C1018       C  0.92064455  0.18952446  0.58013376     1.01200
O1019       O  0.90644891  0.16667986  0.54801501    -0.78100
O1020       O  0.96084708  0.14163034  0.51107629    -0.79500
C1021       C  0.98544519  0.12556334  0.50874199     1.01100
O1022       O  0.89608822  0.01624267  0.54880016    -0.86800
O1023       O  0.91631229  0.03336500  0.63259116    -0.83900
C1024       C  0.88156688  0.02430579  0.65095975     0.96700
O1025       O  0.86558147  0.04887124  0.64690124    -0.83900
O1026       O  0.84327669  0.10401298  0.60775239    -0.86500
C1027       C  0.81978710  0.08910537  0.57616330     1.01200
O1028       O  0.83453833  0.08039043  0.54405032    -0.79300
O1029       O  0.88830457  0.05520938  0.50066026    -0.79500
C1030       C  0.88340870  0.01929543  0.51303449     1.01100
Cr1031     Cr  0.94279850  0.06674086  0.58077729     1.93700
Cr1032     Cr  0.89928335  0.11105755  0.62701058     1.93200
Cr1033     Cr  0.89902315  0.10942225  0.53068666     1.39100
O1034       O  0.91375459  0.09599470  0.57942891    -1.24500
O1035       O  0.62819742  0.01525084  0.55396414    -0.86800
O1036       O  0.62263366  0.03093208  0.63784327    -0.83800
C1037       C  0.64725035  0.02038149  0.65637019     0.96700
O1038       O  0.68775312  0.04201563  0.65021094    -0.83900
O1039       O  0.76730428  0.09864857  0.61188503    -0.86500
C1040       C  0.77689004  0.08749207  0.57807879     1.01200
O1041       O  0.75311803  0.08029374  0.54669316    -0.79300
O1042       O  0.67478487  0.05580299  0.50599288    -0.79500
C1043       C  0.64463654  0.01916889  0.51852675     1.01100
O1044       O  0.62323556  0.09062720  0.53265904    -0.86800
O1045       O  0.63024734  0.11274082  0.61656792    -0.83900
C1046       C  0.64496143  0.12268564  0.65289880     0.96700
O1047       O  0.67415707  0.11473630  0.66537230    -0.83900
O1048       O  0.75351961  0.16986487  0.62405217    -0.86500
C1049       C  0.77669280  0.18649974  0.59222308     1.01200
O1050       O  0.76706023  0.16538145  0.55868112    -0.79300
O1051       O  0.68864993  0.14365281  0.52047467    -0.79500
C1052       C  0.64817197  0.12616966  0.51485532     1.01100
Cr1053     Cr  0.63146413  0.06501577  0.58527205     1.93700
Cr1054     Cr  0.71783964  0.10498792  0.63352594     1.93200
Cr1055     Cr  0.71793244  0.10972210  0.53724307     1.39100
O1056       O  0.68951148  0.09329100  0.58532864    -1.24500
O1057       O  0.88538470  0.47299046  0.69567103    -0.86800
O1058       O  0.88029472  0.48939427  0.77906874    -0.83800
C1059       C  0.86323747  0.48608253  0.81408355     0.96700
O1060       O  0.83202843  0.44995785  0.82619680    -0.83900
O1061       O  0.75531689  0.42492870  0.78207825    -0.86500
C1062       C  0.73203529  0.41748846  0.75017481     1.01200
O1063       O  0.74072811  0.40433948  0.71741275    -0.79300
O1064       O  0.82020363  0.46131279  0.68264119    -0.79500
C1065       C  0.86079044  0.48420768  0.67803576     1.01100
O1066       O  0.87849318  0.39125831  0.71761280    -0.86800
O1067       O  0.88429096  0.41372867  0.80117178    -0.83900
C1068       C  0.85888464  0.37907486  0.82004984     0.96700
O1069       O  0.81841487  0.36212277  0.81473787    -0.83900
O1070       O  0.74117303  0.33962978  0.77452979    -0.86500
C1071       C  0.73226917  0.31748387  0.74174644     1.01200
O1072       O  0.75560187  0.33336973  0.70975670    -0.79300
O1073       O  0.83529315  0.38894168  0.66808926    -0.79500
C1074       C  0.86437052  0.38118445  0.68113988     1.01100
Cr1075     Cr  0.87672808  0.43914162  0.74823943     1.93700
Cr1076     Cr  0.78965959  0.39563011  0.79516407     1.93200
Cr1077     Cr  0.79089037  0.39824151  0.69885732     1.39100
O1078       O  0.81869274  0.41077428  0.74751910    -1.24500
O1079       O  0.53383042  0.41211213  0.70141890    -0.86800
O1080       O  0.51771184  0.39203507  0.78497856    -0.83800
C1081       C  0.52082759  0.37925240  0.82053988     0.96700
O1082       O  0.55659249  0.38388506  0.83303943    -0.83900
O1083       O  0.58172180  0.33029540  0.78949072    -0.86500
C1084       C  0.59085020  0.31578328  0.75750089     1.01200
O1085       O  0.60504868  0.33920063  0.72571295    -0.79300
O1086       O  0.54899997  0.36113399  0.68708172    -0.79500
C1087       C  0.52483385  0.37750316  0.68256585     1.01100
O1088       O  0.61420201  0.48887356  0.72124251    -0.86800
O1089       O  0.59395981  0.47348772  0.80549473    -0.83900
C1090       C  0.62698182  0.48105847  0.82650541     0.96700
O1091       O  0.64301100  0.45645924  0.82331271    -0.83900
O1092       O  0.66773662  0.40253180  0.78452873    -0.86500
C1093       C  0.69017932  0.41711063  0.75218049     1.01200
O1094       O  0.67468598  0.42524570  0.72038433    -0.79300
O1095       O  0.62264072  0.44889266  0.67474446    -0.79500
C1096       C  0.62769770  0.48521363  0.68611744     1.01100
Cr1097     Cr  0.56775189  0.43881077  0.75351010     1.93700
Cr1098     Cr  0.61065546  0.39475366  0.80288693     1.93200
Cr1099     Cr  0.61124899  0.39511995  0.70647107     1.39100
O1100       O  0.59681567  0.40962143  0.75438494    -1.24500
O1101       O  0.51950178  0.12778643  0.78149585    -0.86800
O1102       O  0.53376812  0.12041717  0.69721803    -0.83800
C1103       C  0.52465279  0.14553103  0.67755686     0.96700
O1104       O  0.54747575  0.18609094  0.68288870    -0.83900
O1105       O  0.60324151  0.26473659  0.72256119    -0.86500
C1106       C  0.59069443  0.27349131  0.75604018     1.01200
O1107       O  0.58331512  0.24951880  0.78746656    -0.79300
O1108       O  0.56189887  0.17150920  0.82997712    -0.79500
C1109       C  0.52454368  0.14254518  0.81786673     1.01100
O1110       O  0.59526901  0.12178486  0.80171051    -0.86800
O1111       O  0.61502300  0.12618563  0.71765051    -0.83900
C1112       C  0.62628941  0.14163590  0.68167278     0.96700
O1113       O  0.61994323  0.17191086  0.66934610    -0.83900
O1114       O  0.67479113  0.25077339  0.71108393    -0.86500
C1115       C  0.69063755  0.27488553  0.74250797     1.01200
O1116       O  0.66898149  0.26571683  0.77555796    -0.79300
O1117       O  0.64919759  0.18721136  0.81266980    -0.79500
C1118       C  0.63137993  0.14678746  0.81876519     1.01100
Cr1119     Cr  0.56844254  0.12923803  0.74948915     1.93700
Cr1120     Cr  0.61006562  0.21555856  0.70084022     1.93200
Cr1121     Cr  0.61424151  0.21559530  0.79710414     1.39100
O1122       O  0.59766714  0.18714776  0.74900514    -1.24500
O1123       O  0.97711066  0.38366261  0.96846122    -0.86800
O1124       O  0.98953142  0.37769136  0.88401331    -0.83800
C1125       C  0.98398633  0.36301909  0.84763952     0.96700
O1126       O  0.94653176  0.33424012  0.83547117    -0.83900
O1127       O  0.92445658  0.25483804  0.87552015    -0.86500
C1128       C  0.91894249  0.23147752  0.90707778     1.01200
O1129       O  0.90826814  0.24066416  0.94118843    -0.79300
O1130       O  0.96663986  0.31861309  0.97861231    -0.79500
C1131       C  0.98888197  0.35897990  0.98503743     1.01100
O1132       O  0.89495763  0.37701298  0.95006473    -0.86800
O1133       O  0.91411531  0.38436951  0.86569521    -0.83900
C1134       C  0.87787579  0.35976019  0.84873237     0.96700
O1135       O  0.85975831  0.31933465  0.85479453    -0.83900
O1136       O  0.83990682  0.24073040  0.89108970    -0.86500
C1137       C  0.81987421  0.23104831  0.92519240     1.01200
O1138       O  0.83750830  0.25411628  0.95691351    -0.79300
O1139       O  0.89432815  0.33302895  0.99810273    -0.79500
C1140       C  0.88558917  0.36187393  0.98626244     1.01100
Cr1141     Cr  0.94141925  0.37565918  0.91704042     1.93700
Cr1142     Cr  0.89438804  0.29008244  0.86846966     1.93200
Cr1143     Cr  0.90276955  0.28945649  0.96450707     1.39100
O1144       O  0.91261976  0.31790739  0.91666508    -1.24500
O1145       O  0.99204890  0.11466534  0.88231169    -0.86800
O1146       O  0.97529632  0.09329621  0.96618779    -0.83800
C1147       C  0.98506959  0.12843026  0.98443427     0.96700
O1148       O  0.96205480  0.14578541  0.97845792    -0.83900
O1149       O  0.90666055  0.16748444  0.93877000    -0.86500
C1150       C  0.91890288  0.18938260  0.90585883     1.01200
O1151       O  0.92618865  0.17360549  0.87375304    -0.78100
O1152       O  0.95167612  0.11857062  0.83298876    -0.79500
C1153       C  0.98810885  0.12499386  0.84588193     1.01100
O1154       O  0.91745959  0.03324084  0.86087890    -0.86800
O1155       O  0.89516802  0.01761788  0.94447373    -0.83900
C1156       C  0.88198916  0.02148052  0.97961900     0.96700
O1157       O  0.88789612  0.05805658  0.99149585    -0.83900
O1158       O  0.83575598  0.08253945  0.94714727    -0.86500
C1159       C  0.81931531  0.08901077  0.91510603     1.01200
O1160       O  0.84075958  0.10154451  0.88197360    -0.79300
O1161       O  0.86501150  0.04615159  0.84621854    -0.79500
C1162       C  0.88277402  0.02333383  0.84176031     1.01100
Cr1163     Cr  0.94227451  0.06746557  0.91329991     1.93700
Cr1164     Cr  0.89956100  0.11194944  0.95967973     1.93200
Cr1165     Cr  0.89763041  0.10873827  0.86326639     1.39100
O1166       O  0.91294703  0.09624364  0.91205291    -1.24500
O1167       O  0.62887425  0.01710335  0.88811524    -0.86800
O1168       O  0.62241796  0.03351644  0.97163895    -0.83800
C1169       C  0.64669448  0.02295724  0.99074281     0.96700
O1170       O  0.68734484  0.04512074  0.98607177    -0.83900
O1171       O  0.76771133  0.10017214  0.95057596    -0.86500
C1172       C  0.77728642  0.08859988  0.91726031     1.01200
O1173       O  0.75464240  0.08238966  0.88508081    -0.79300
O1174       O  0.67744272  0.05660366  0.84118691    -0.79500
C1175       C  0.64618945  0.02036028  0.85319586     1.01100
O1176       O  0.62514388  0.09275307  0.86592607    -0.86800
O1177       O  0.63083632  0.11554065  0.94946657    -0.83900
C1178       C  0.64532906  0.12597805  0.98582173     0.96700
O1179       O  0.67460557  0.11855685  0.99888652    -0.83900
O1180       O  0.75520059  0.17265902  0.95843584    -0.86500
C1181       C  0.77791207  0.18875206  0.92611547     1.01200
O1182       O  0.76798337  0.16714330  0.89304497    -0.79300
O1183       O  0.69087340  0.14475400  0.85306596    -0.79500
C1184       C  0.65044989  0.12765995  0.84749361     1.01100
Cr1185     Cr  0.63241425  0.06748646  0.91894696     1.93700
Cr1186     Cr  0.71825829  0.10784552  0.96890518     1.93200
Cr1187     Cr  0.71969040  0.11116624  0.87238194     1.39100
O1188       O  0.69057589  0.09563722  0.92005631    -1.24500
O1189       O  0.88723052  0.97434992  0.02827515    -0.86800
O1190       O  0.88171789  0.98980182  0.11206509    -0.83800
C1191       C  0.86426630  0.98626598  0.14692795     0.96700
O1192       O  0.83256737  0.95028265  0.15842393    -0.83900
O1193       O  0.75625436  0.92628045  0.11343707    -0.86500
C1194       C  0.73292628  0.91877220  0.08148231     1.01200
O1195       O  0.74181992  0.90564212  0.04872667    -0.79300
O1196       O  0.82177192  0.96064487  0.01232746    -0.79500
C1197       C  0.86245481  0.98372301  0.00834900     1.01100
O1198       O  0.87998726  0.89226513  0.04932823    -0.86800
O1199       O  0.88462910  0.91314021  0.13295526    -0.83900
C1200       C  0.85885066  0.87855614  0.15175574     0.96700
O1201       O  0.81839402  0.86237865  0.14676780    -0.83900
O1202       O  0.74142933  0.84085590  0.10673765    -0.86500
C1203       C  0.73234842  0.81827011  0.07437036     1.01200
O1204       O  0.75564664  0.83362546  0.04227609    -0.79300
O1205       O  0.83544064  0.88798598  0.00027661    -0.79500
C1206       C  0.86535208  0.88144563  0.01310658     1.01100
Cr1207     Cr  0.87779723  0.93967515  0.08046043     1.93700
Cr1208     Cr  0.79025233  0.89652788  0.12696166     1.93200
Cr1209     Cr  0.79163640  0.89831092  0.03054072     1.39100
O1210       O  0.81959059  0.91149047  0.07932603    -1.24500
O1211       O  0.53320366  0.91191375  0.03292762    -0.86800
O1212       O  0.51691723  0.89035838  0.11658343    -0.83800
C1213       C  0.52105250  0.87978684  0.15283817     0.96700
O1214       O  0.55780934  0.88711304  0.16565988    -0.83900
O1215       O  0.58397277  0.83312845  0.12457905    -0.86500
C1216       C  0.59151082  0.81742988  0.09254167     1.01200
O1217       O  0.60373097  0.83929218  0.05962651    -0.79300
O1218       O  0.54783091  0.86048487  0.01981354    -0.79500
C1219       C  0.52400087  0.87708129  0.01445988     1.01100
O1220       O  0.61273457  0.98836673  0.05406161    -0.86800
O1221       O  0.59124361  0.97271454  0.13800086    -0.83900
C1222       C  0.62599416  0.98285696  0.15721188     0.96700
O1223       O  0.64410710  0.96038227  0.15253447    -0.83900
O1224       O  0.66926990  0.90570618  0.11661215    -0.86500
C1225       C  0.69078118  0.91831357  0.08353290     1.01200
O1226       O  0.67424474  0.92463972  0.05145221    -0.79300
O1227       O  0.62164998  0.94867893  0.00729093    -0.79500
C1228       C  0.62673582  0.98494395  0.01916579     1.01100
Cr1229     Cr  0.56635497  0.93815200  0.08554922     1.93700
Cr1230     Cr  0.61207060  0.89783450  0.13525589     1.93200
Cr1231     Cr  0.61031867  0.89478952  0.03884621     1.39100
O1232       O  0.59651535  0.91015356  0.08652495    -1.24500
O1233       O  0.52038811  0.62910134  0.11608484    -0.86800
O1234       O  0.53410984  0.62290102  0.03190858    -0.83800
C1235       C  0.52268815  0.64760160  0.01483546     0.96700
O1236       O  0.54507480  0.68802586  0.02089547    -0.83900
O1237       O  0.60314902  0.76624322  0.05814937    -0.86500
C1238       C  0.59166331  0.77541549  0.09186372     1.01200
O1239       O  0.58539784  0.75203009  0.12354642    -0.79300
O1240       O  0.56274505  0.67284543  0.16476600    -0.79500
C1241       C  0.52545088  0.64371931  0.15246956     1.01100
O1242       O  0.59558959  0.62257839  0.13552667    -0.86800
O1243       O  0.61588799  0.62929547  0.05159649    -0.83900
C1244       C  0.62574998  0.64425538  0.01535526     0.96700
O1245       O  0.61738166  0.67320926  0.00308476    -0.83900
O1246       O  0.67370303  0.75203763  0.04425743    -0.86500
C1247       C  0.69072318  0.77572158  0.07574249     1.01200
O1248       O  0.67025431  0.76637011  0.10961897    -0.79300
O1249       O  0.64989175  0.68759259  0.14682269    -0.79500
C1250       C  0.63180604  0.64704934  0.15247994     1.01100
Cr1251     Cr  0.56902375  0.63105383  0.08378268     1.93700
Cr1252     Cr  0.60867396  0.71704777  0.03583812     1.93200
Cr1253     Cr  0.61543719  0.71691550  0.13202065     1.39100
O1254       O  0.59793448  0.68882018  0.08390265    -1.24500
O1255       O  0.97476558  0.88378114  0.30195796    -0.86800
O1256       O  0.98885815  0.87728181  0.21749066    -0.83800
C1257       C  0.98384364  0.86219247  0.18125628     0.96700
O1258       O  0.94668301  0.83288022  0.16906594    -0.83900
O1259       O  0.92403300  0.75378477  0.21048106    -0.86500
C1260       C  0.91780338  0.73043213  0.24225540     1.01200
O1261       O  0.90633871  0.73974795  0.27591293    -0.79300
O1262       O  0.96294988  0.81846864  0.31453066    -0.79500
C1263       C  0.98485665  0.85894138  0.32074854     1.01100
O1264       O  0.89302088  0.87673367  0.28205959    -0.86800
O1265       O  0.91343429  0.88343352  0.19785241    -0.83900
C1266       C  0.87754143  0.85878190  0.18038196     0.96700
O1267       O  0.85965209  0.81825267  0.18605907    -0.83900
O1268       O  0.83918154  0.73961113  0.22341237    -0.86500
C1269       C  0.81842053  0.73033886  0.25702676     1.01200
O1270       O  0.83520845  0.75379672  0.28864629    -0.79300
O1271       O  0.89074248  0.83209193  0.33024609    -0.79500
C1272       C  0.88304633  0.86148664  0.31822242     1.01100
Cr1273     Cr  0.93997402  0.87509813  0.24981042     1.93700
Cr1274     Cr  0.89407501  0.78901362  0.20156756     1.93200
Cr1275     Cr  0.90000077  0.78880584  0.29788122     1.39100
O1276       O  0.91128974  0.81722024  0.24977167    -1.24500
O1277       O  0.99064695  0.61330975  0.21624390    -0.86800
O1278       O  0.97452776  0.59072489  0.29955816    -0.83800
C1279       C  0.98505887  0.62623722  0.31719954     0.96700
O1280       O  0.96178933  0.64345588  0.31224019    -0.83900
O1281       O  0.90640235  0.66650091  0.27450405    -0.86500
C1282       C  0.91798065  0.68827433  0.24145308     1.01200
O1283       O  0.92469257  0.67228420  0.20917143    -0.78100
O1284       O  0.95003274  0.61782026  0.16754297    -0.79500
C1285       C  0.98654200  0.62430042  0.18016482     1.01100
O1286       O  0.91634767  0.53223978  0.19450624    -0.86800
O1287       O  0.89435698  0.51549909  0.27839966    -0.83900
C1288       C  0.88135720  0.51923738  0.31373812     0.96700
O1289       O  0.88710266  0.55577017  0.32572521    -0.83900
O1290       O  0.83488904  0.58179835  0.28282811    -0.86500
C1291       C  0.81822681  0.58792393  0.25068396     1.01200
O1292       O  0.83938416  0.59990973  0.21740133    -0.79300
O1293       O  0.86371229  0.54508240  0.18058955    -0.79500
C1294       C  0.88174753  0.52259472  0.17547935     1.01100
Cr1295     Cr  0.94111824  0.56569260  0.24706806     1.93700
Cr1296     Cr  0.89897294  0.61027702  0.29458372     1.93200
Cr1297     Cr  0.89616609  0.60747413  0.19823347     1.39100
O1298       O  0.91169212  0.59451419  0.24662794    -1.24500
O1299       O  0.62769781  0.51599701  0.22147705    -0.86800
O1300       O  0.62177609  0.53280400  0.30503894    -0.83800
C1301       C  0.64657443  0.52357488  0.32513850     0.96700
O1302       O  0.68723862  0.54667142  0.32113934    -0.83900
O1303       O  0.76731134  0.60127169  0.28495799    -0.86500
C1304       C  0.77618923  0.58765402  0.25251543     1.01200
O1305       O  0.75295012  0.57980539  0.22043050    -0.79300
O1306       O  0.67673559  0.55502112  0.17485431    -0.79500
C1307       C  0.64508453  0.51904239  0.18663770     1.01100
O1308       O  0.62479393  0.59229034  0.19910052    -0.86800
O1309       O  0.62903836  0.61459049  0.28222698    -0.83900
C1310       C  0.64366614  0.62591272  0.31839602     0.96700
O1311       O  0.67345114  0.61943140  0.33165927    -0.83900
O1312       O  0.75315319  0.67314531  0.29009662    -0.86500
C1313       C  0.77669138  0.68809560  0.25817289     1.01200
O1314       O  0.76779368  0.66526130  0.22596703    -0.79300
O1315       O  0.69097576  0.64338284  0.18574973    -0.79500
C1316       C  0.65055271  0.62711788  0.18066705     1.01100
Cr1317     Cr  0.63139489  0.56662941  0.25217299     1.93700
Cr1318     Cr  0.71734920  0.60874196  0.30235895     1.93200
Cr1319     Cr  0.71903535  0.60936276  0.20601404     1.39100
O1320       O  0.68958351  0.59491365  0.25351607    -1.24500
O1321       O  0.88659762  0.97205637  0.36353821    -0.86800
O1322       O  0.87986025  0.98602735  0.44798526    -0.83800
C1323       C  0.86452019  0.98142800  0.48408148     0.96700
O1324       O  0.83380359  0.94466774  0.49566275    -0.83900
O1325       O  0.75492715  0.92091231  0.45124171    -0.86500
C1326       C  0.73237028  0.91547502  0.41885278     1.01200
O1327       O  0.74185050  0.90410334  0.38541019    -0.79300
O1328       O  0.82129666  0.95909141  0.34871761    -0.79500
C1329       C  0.86190789  0.98177740  0.34392707     1.01100
O1330       O  0.87927776  0.89000596  0.38346572    -0.86800
O1331       O  0.88478293  0.90991698  0.46746451    -0.83900
C1332       C  0.85979566  0.87441161  0.48531840     0.96700
O1333       O  0.81922643  0.85724204  0.48014498    -0.83900
O1334       O  0.74112576  0.83650366  0.44170715    -0.86500
C1335       C  0.73087063  0.81542985  0.40837643     1.01200
O1336       O  0.75401326  0.83153188  0.37629896    -0.79300
O1337       O  0.83401294  0.88601764  0.33514767    -0.79500
C1338       C  0.86411344  0.87952061  0.34734808     1.01100
Cr1339     Cr  0.87707106  0.93678749  0.41552359     1.93700
Cr1340     Cr  0.79029149  0.89159972  0.46282130     1.93200
Cr1341     Cr  0.79081813  0.89636764  0.36613724     1.39100
O1342       O  0.81895030  0.90813151  0.41479978    -1.24500
O1343       O  0.53089398  0.90943554  0.36806944    -0.86800
O1344       O  0.51628205  0.88888812  0.45171740    -0.83800
C1345       C  0.52086021  0.87900705  0.48810907     0.96700
O1346       O  0.55765693  0.88650073  0.50040994    -0.83900
O1347       O  0.58087087  0.83127433  0.45691174    -0.86500
C1348       C  0.58911964  0.81631975  0.42466858     1.01200
O1349       O  0.60327858  0.83919924  0.39258953    -0.79300
O1350       O  0.55019367  0.86223328  0.35041696    -0.79500
C1351       C  0.52426886  0.87675563  0.34722741     1.01100
O1352       O  0.60974690  0.98716058  0.38674783    -0.86800
O1353       O  0.59151897  0.97178832  0.47101234    -0.83900
C1354       C  0.62604707  0.98130199  0.49031672     0.96700
O1355       O  0.64343243  0.95800533  0.48660628    -0.83900
O1356       O  0.66734625  0.90157988  0.45206680    -0.86500
C1357       C  0.69042907  0.91581773  0.42016895     1.01200
O1358       O  0.67539699  0.92430561  0.38814646    -0.79300
O1359       O  0.62504802  0.95007771  0.34216928    -0.79500
C1360       C  0.62649680  0.98497938  0.35297039     1.01100
Cr1361     Cr  0.56509911  0.93659315  0.41955868     1.93700
Cr1362     Cr  0.61060953  0.89571498  0.46912287     1.93200
Cr1363     Cr  0.61180606  0.89544878  0.37274154     1.39100
O1364       O  0.59605255  0.90927745  0.42027326    -1.24500
O1365       O  0.51755198  0.62641503  0.44635384    -0.86800
O1366       O  0.53275245  0.62209301  0.36293562    -0.83800
C1367       C  0.52043319  0.64648903  0.34671791     0.96700
O1368       O  0.54245633  0.68693049  0.35277253    -0.83900
O1369       O  0.60061215  0.76542053  0.38962806    -0.86500
C1370       C  0.58840901  0.77412471  0.42318129     1.01200
O1371       O  0.58128421  0.75031102  0.45443215    -0.79300
O1372       O  0.55803573  0.67255431  0.49460300    -0.79500
C1373       C  0.52139123  0.64297374  0.48165081     1.01100
O1374       O  0.59344178  0.62161648  0.46711766    -0.86800
O1375       O  0.61499363  0.62967372  0.38330443    -0.83900
C1376       C  0.62404880  0.64404741  0.34685402     0.96700
O1377       O  0.61485473  0.67239613  0.33446468    -0.83900
O1378       O  0.67113934  0.75100932  0.37655518    -0.86500
C1379       C  0.68809259  0.77401842  0.40845655     1.01200
O1380       O  0.66690121  0.76502754  0.44194320    -0.79300
O1381       O  0.64602687  0.68712464  0.47992317    -0.79500
C1382       C  0.62887117  0.64663726  0.48513528     1.01100
Cr1383     Cr  0.56721898  0.63002525  0.41496260     1.93700
Cr1384     Cr  0.60609503  0.71615807  0.36746315     1.93200
Cr1385     Cr  0.61155906  0.71593030  0.46353230     1.39100
O1386       O  0.59517156  0.68780776  0.41541454    -1.24500
O1387       O  0.97485502  0.88231928  0.63685073    -0.86800
O1388       O  0.99088875  0.87670011  0.55376518    -0.83800
C1389       C  0.98720742  0.85991691  0.51858779     0.96700
O1390       O  0.95079755  0.82926565  0.50647411    -0.83900
O1391       O  0.92763525  0.75350890  0.55177093    -0.86500
C1392       C  0.91984409  0.73008839  0.58368215     1.01200
O1393       O  0.90542884  0.73802476  0.61598448    -0.79300
O1394       O  0.96245028  0.81699617  0.65050549    -0.79500
C1395       C  0.98589344  0.85757409  0.65450371     1.01100
O1396       O  0.89319171  0.87594626  0.61482875    -0.86800
O1397       O  0.91479374  0.88071432  0.53159725    -0.83900
C1398       C  0.87945251  0.85527530  0.51362788     0.96700
O1399       O  0.86270555  0.81477879  0.51895075    -0.83900
O1400       O  0.84168564  0.73764554  0.55890657    -0.86500
C1401       C  0.81914918  0.72931110  0.59131786     1.01200
O1402       O  0.83464562  0.75326186  0.62301018    -0.79300
O1403       O  0.89045370  0.83278871  0.66457193    -0.79500
C1404       C  0.88282931  0.86182019  0.65122455     1.01100
Cr1405     Cr  0.94082113  0.87370522  0.58443663     1.93700
Cr1406     Cr  0.89714074  0.78664408  0.53811107     1.93200
Cr1407     Cr  0.89945572  0.78816309  0.63422451     1.39100
O1408       O  0.91222765  0.81580274  0.58554045    -1.24500
O1409       O  0.97612166  0.59260028  0.52836724    -0.86800
O1410       O  0.99174749  0.61305727  0.61242215    -0.83800
C1411       C  0.98798968  0.62623761  0.64769319     0.96700
O1412       O  0.95158358  0.62078862  0.65919561    -0.83900
O1413       O  0.92789958  0.67306803  0.61383333    -0.86500
C1414       C  0.91990824  0.68855768  0.58192296     1.01200
O1415       O  0.90544754  0.66619667  0.54959703    -0.78100
O1416       O  0.95937425  0.64198031  0.51108487    -0.79500
C1417       C  0.98372646  0.62574752  0.50777333     1.01100
O1418       O  0.89526606  0.51640362  0.54774843    -0.86800
O1419       O  0.91533545  0.53238305  0.63186111    -0.83900
C1420       C  0.88054244  0.52304726  0.65044572     0.96700
O1421       O  0.86409867  0.54716106  0.64623395    -0.83900
O1422       O  0.84208660  0.60325835  0.60838144    -0.86500
C1423       C  0.81873558  0.58902197  0.57666748     1.01200
O1424       O  0.83336867  0.58029126  0.54445310    -0.79300
O1425       O  0.88713784  0.55576119  0.50018669    -0.79500
C1426       C  0.88278232  0.51992443  0.51205216     1.01100
Cr1427     Cr  0.94179243  0.56641358  0.57998896     1.93700
Cr1428     Cr  0.89795808  0.60952653  0.62743089     1.93200
Cr1429     Cr  0.89775209  0.60942798  0.53102783     1.39100
O1430       O  0.91251104  0.59534565  0.57938886    -1.24500
O1431       O  0.62716912  0.51659089  0.55395446    -0.86800
O1432       O  0.62244758  0.53331636  0.63805568    -0.83800
C1433       C  0.64708660  0.52280813  0.65674115     0.96700
O1434       O  0.68758053  0.54434209  0.65035416    -0.83900
O1435       O  0.76710582  0.60038445  0.61169659    -0.86500
C1436       C  0.77623831  0.58823095  0.57820835     1.01200
O1437       O  0.75236130  0.58064586  0.54689678    -0.79300
O1438       O  0.67437270  0.55618969  0.50597516    -0.79500
C1439       C  0.64403240  0.51982687  0.51878377     1.01100
O1440       O  0.62314278  0.59240645  0.53215551    -0.86800
O1441       O  0.63078028  0.61545748  0.61573199    -0.83900
C1442       C  0.64548955  0.62529278  0.65204862     0.96700
O1443       O  0.67454989  0.61725041  0.66450501    -0.83900
O1444       O  0.75321023  0.67167107  0.62249041    -0.86500
C1445       C  0.77665272  0.68766375  0.59069117     1.01200
O1446       O  0.76706643  0.66617931  0.55742663    -0.79300
O1447       O  0.68875484  0.64450296  0.51876561    -0.79500
C1448       C  0.64823191  0.62742779  0.51363390     1.01100
Cr1449     Cr  0.63125257  0.56704511  0.58496483     1.93700
Cr1450     Cr  0.71778235  0.60708658  0.63286561     1.93200
Cr1451     Cr  0.71764735  0.61042098  0.53655296     1.39100
O1452       O  0.68928302  0.59485803  0.58473626    -1.24500
O1453       O  0.88586656  0.97322431  0.69498151    -0.86800
O1454       O  0.88162268  0.98876067  0.77856086    -0.83800
C1455       C  0.86414833  0.98543826  0.81334748     0.96700
O1456       O  0.83247047  0.94942071  0.82507870    -0.83900
O1457       O  0.75535428  0.92410108  0.78104056    -0.86500
C1458       C  0.73208408  0.91688332  0.74910952     1.01200
O1459       O  0.74116756  0.90455438  0.71610829    -0.79300
O1460       O  0.82081163  0.96197759  0.68205267    -0.79500
C1461       C  0.86144358  0.98498886  0.67789363     1.01100
O1462       O  0.87829364  0.89086197  0.71574315    -0.86800
O1463       O  0.88489575  0.91232115  0.79917529    -0.83900
C1464       C  0.85937242  0.87776815  0.81811398     0.96700
O1465       O  0.81891366  0.86138552  0.81324419    -0.83900
O1466       O  0.74200136  0.83928371  0.77317215    -0.86500
C1467       C  0.73250209  0.81749082  0.74021619     1.01200
O1468       O  0.75538187  0.83357800  0.70790368    -0.79300
O1469       O  0.83543412  0.88939566  0.66631040    -0.79500
C1470       C  0.86412334  0.88108524  0.67932241     1.01100
Cr1471     Cr  0.87722309  0.93860169  0.74692330     1.93700
Cr1472     Cr  0.79019166  0.89512305  0.79388757     1.93200
Cr1473     Cr  0.79125550  0.89862526  0.69751098     1.39100
O1474       O  0.81913887  0.91058363  0.74622600    -1.24500
O1475       O  0.53410978  0.91233359  0.70082652    -0.86800
O1476       O  0.51801052  0.89158785  0.78443946    -0.83800
C1477       C  0.52161972  0.87999468  0.82041032     0.96700
O1478       O  0.55782731  0.88579412  0.83323440    -0.83900
O1479       O  0.58378905  0.83122585  0.79234540    -0.86500
C1480       C  0.59039744  0.81523340  0.75995473     1.01200
O1481       O  0.60186536  0.83689476  0.72700916    -0.79300
O1482       O  0.54624685  0.85909993  0.68872798    -0.79500
C1483       C  0.52329229  0.87666694  0.68333653     1.01100
O1484       O  0.61501441  0.98758979  0.72102530    -0.86800
O1485       O  0.59327776  0.97299961  0.80508552    -0.83900
C1486       C  0.62744243  0.98225505  0.82480147     0.96700
O1487       O  0.64452567  0.95872836  0.82093817    -0.83900
O1488       O  0.66887697  0.90396145  0.78444730    -0.86500
C1489       C  0.68991511  0.91597558  0.75112632     1.01200
O1490       O  0.67303380  0.92140343  0.71879051    -0.79300
O1491       O  0.62119396  0.94620560  0.67435643    -0.79500
C1492       C  0.62774196  0.98309869  0.68581300     1.01100
Cr1493     Cr  0.56789367  0.93829918  0.75307816     1.93700
Cr1494     Cr  0.61197218  0.89618200  0.80311143     1.93200
Cr1495     Cr  0.60916064  0.89251420  0.70657822     1.39100
O1496       O  0.59664822  0.90888481  0.75433619    -1.24500
O1497       O  0.52064530  0.62764877  0.78171110    -0.86800
O1498       O  0.53461111  0.62034321  0.69692195    -0.83800
C1499       C  0.52388602  0.64485348  0.67833980     0.96700
O1500       O  0.54524268  0.68524962  0.68513489    -0.83900
O1501       O  0.60122456  0.76389997  0.72432640    -0.86500
C1502       C  0.59065718  0.77324434  0.75854667     1.01200
O1503       O  0.58560960  0.75025607  0.79020632    -0.79300
O1504       O  0.56339228  0.67127406  0.83031189    -0.79500
C1505       C  0.52588076  0.64269478  0.81801550     1.01100
O1506       O  0.59621144  0.62141471  0.80165712    -0.86800
O1507       O  0.61669826  0.62826601  0.71730855    -0.83900
C1508       C  0.62662556  0.64353990  0.68113942     0.96700
O1509       O  0.61855624  0.67274593  0.66903655    -0.83900
O1510       O  0.67343528  0.75190763  0.70970718    -0.86500
C1511       C  0.69074092  0.77502041  0.74139675     1.01200
O1512       O  0.67056465  0.76511706  0.77541682    -0.79300
O1513       O  0.65067001  0.68643003  0.81214800    -0.79500
C1514       C  0.63245267  0.64606764  0.81865536     1.01100
Cr1515     Cr  0.56953073  0.62955617  0.74943852     1.93700
Cr1516     Cr  0.60848116  0.71569212  0.70143179     1.93200
Cr1517     Cr  0.61589792  0.71541497  0.79769426     1.39100
O1518       O  0.59811610  0.68738042  0.74945832    -1.24500
O1519       O  0.97631084  0.88380244  0.96796055    -0.86800
O1520       O  0.98946248  0.87659026  0.88385374    -0.83800
C1521       C  0.98403369  0.86142857  0.84767106     0.96700
O1522       O  0.94677537  0.83225447  0.83570411    -0.83900
O1523       O  0.92525350  0.75431515  0.87818708    -0.86500
C1524       C  0.91865034  0.73087802  0.90991008     1.01200
O1525       O  0.90661162  0.73995200  0.94335510    -0.79300
O1526       O  0.96483834  0.81857330  0.97968578    -0.79500
C1527       C  0.98749634  0.85901421  0.98532045     1.01100
O1528       O  0.89452624  0.87771534  0.94818711    -0.86800
O1529       O  0.91428958  0.88309603  0.86402649    -0.83900
C1530       C  0.87823848  0.85827705  0.84684561     0.96700
O1531       O  0.86018791  0.81780138  0.85306808    -0.83900
O1532       O  0.84016873  0.73967865  0.89151566    -0.86500
C1533       C  0.81948078  0.73088765  0.92517964     1.01200
O1534       O  0.83632594  0.75495448  0.95648809    -0.79300
O1535       O  0.89301290  0.83414246  0.99707275    -0.79500
C1536       C  0.88474800  0.86309593  0.98454830     1.01100
Cr1537     Cr  0.94112706  0.87527294  0.91607544     1.93700
Cr1538     Cr  0.89470329  0.78880098  0.86881622     1.93200
Cr1539     Cr  0.90134067  0.78971963  0.96491939     1.39100
O1540       O  0.91211279  0.81750657  0.91659744    -1.24500
O1541       O  0.99211132  0.61466610  0.88233837    -0.86800
O1542       O  0.97641979  0.59316799  0.96613103    -0.83800
C1543       C  0.98525251  0.62759208  0.98527139     0.96700
O1544       O  0.96148855  0.64426571  0.98034365    -0.83900
O1545       O  0.90568710  0.66623992  0.94156691    -0.86500
C1546       C  0.91892607  0.68888400  0.90910628     1.01200
O1547       O  0.92736319  0.67381402  0.87714233    -0.78100
O1548       O  0.95127241  0.61890804  0.83386029    -0.79500
C1549       C  0.98778565  0.62512096  0.84609388     1.01100
O1550       O  0.91695056  0.53326282  0.86139683    -0.86800
O1551       O  0.89652601  0.51678890  0.94517831    -0.83900
C1552       C  0.88297960  0.52002012  0.98036315     0.96700
O1553       O  0.88816134  0.55622410  0.99252556    -0.83900
O1554       O  0.83543167  0.58049189  0.94886722    -0.86500
C1555       C  0.81947733  0.58846803  0.91734407     1.01200
O1556       O  0.84144146  0.60245875  0.88464704    -0.79300
O1557       O  0.86483699  0.54700490  0.84730504    -0.79500
C1558       C  0.88226161  0.52388903  0.84251228     1.01100
Cr1559     Cr  0.94277662  0.56720257  0.91369323     1.93700
Cr1560     Cr  0.89922726  0.61034953  0.96150197     1.93200
Cr1561     Cr  0.89792226  0.60924782  0.86524429     1.39100
O1562       O  0.91310192  0.59567932  0.91349885    -1.24500
O1563       O  0.62896975  0.51637476  0.88997932    -0.86800
O1564       O  0.62313740  0.53398799  0.97328820    -0.83800
C1565       C  0.64748743  0.52369274  0.99262985     0.96700
O1566       O  0.68819591  0.54608665  0.98827607    -0.83900
O1567       O  0.76859202  0.60117078  0.95242724    -0.86500
C1568       C  0.77751168  0.58813914  0.91962991     1.01200
O1569       O  0.75430198  0.58070520  0.88765821    -0.79300
O1570       O  0.67764050  0.55519521  0.84296935    -0.79500
C1571       C  0.64616533  0.51917801  0.85506069     1.01100
O1572       O  0.62568182  0.59237327  0.86688568    -0.86800
O1573       O  0.63118014  0.61568833  0.95035489    -0.83900
C1574       C  0.64539832  0.62620769  0.98678608     0.96700
O1575       O  0.67482363  0.61911138  0.00002550    -0.83900
O1576       O  0.75481171  0.67313189  0.95871143    -0.86500
C1577       C  0.77782612  0.68849511  0.92649681     1.01200
O1578       O  0.76852753  0.66599938  0.89398544    -0.79300
O1579       O  0.69166188  0.64357885  0.85336284    -0.79500
C1580       C  0.65123311  0.62683138  0.84784330     1.01100
Cr1581     Cr  0.63281020  0.56734171  0.92029496     1.93700
Cr1582     Cr  0.71870841  0.60854468  0.97030152     1.93200
Cr1583     Cr  0.72004725  0.60991337  0.87379804     1.39100
O1584       O  0.69092166  0.59538978  0.92144790    -1.24500
loop_ 
_geom_bond_atom_site_label_1 
_geom_bond_atom_site_label_2 
_geom_bond_distance 
_geom_bond_site_symmetry_2 
_ccdc_geom_bond_type 
O1          Cr19   2.028       .  S
O1            C9   1.266       .  A
O2          Cr19   2.000       .  S
O2            C3   1.267       .  A
C3            O4   1.270       .  A
C3          C502   1.488       .  S
O4          Cr20   2.025       .  S
O5          Cr20   2.013       .  S
O5            C6   1.270       .  A
C6            O7   1.261       .  A
C6           C37   1.487       .  S
O7          Cr21   1.996       .  S
O8          Cr21   2.008       .  S
O8            C9   1.263       .  A
C9          C760   1.493   1_554  S
O10         Cr19   1.995       .  S
O10          C18   1.265       .  A
O11         Cr19   2.026       .  S
O11          C12   1.265       .  A
C12          O13   1.265       .  A
C12          C78   1.511       .  S
O13         Cr20   2.031       .  S
O14         Cr20   1.983       .  S
O14          C15   1.265       .  A
C15          O16   1.270       .  A
C15          C59   1.495       .  S
O16         Cr21   2.029       .  S
O17         Cr21   2.018       .  S
O17          C18   1.267       .  A
C18         C348   1.477   1_554  S
Cr19         O22   1.789       .  S
Cr20         O22   1.788       .  S
Cr21         O22   1.800       .  S
O23         Cr41   2.018       .  S
O23          C31   1.263       .  A
O24         Cr41   2.002       .  S
O24          C25   1.266       .  A
C25          O26   1.268       .  A
C25         C861   1.484   1_455  S
O26         Cr42   2.021       .  S
O27         Cr42   2.027       .  S
O27          C28   1.271       .  A
C28          O29   1.263       .  A
C28          C50   1.495       .  S
O29         Cr43   1.986       .  S
O30         Cr43   2.028       .  S
O30          C31   1.266       .  A
C31        C1131   1.505   1_454  S
O32         Cr41   2.004       .  S
O32          C40   1.268       .  A
O33         Cr41   2.021       .  S
O33          C34   1.264       .  A
C34          O35   1.263       .  A
C34         C515   1.487       .  S
O35         Cr42   2.006       .  S
O36         Cr42   2.001       .  S
O36          C37   1.262       .  A
C37          O38   1.269       .  A
O38         Cr43   2.010       .  S
O39         Cr43   2.024       .  S
O39          C40   1.269       .  A
C40         C773   1.489   1_554  S
Cr41         O44   1.791       .  S
Cr42         O44   1.801       .  S
Cr43         O44   1.788       .  S
O45         Cr63   1.997       .  S
O45          C53   1.267       .  A
O46         Cr63   2.026       .  S
O46          C47   1.266       .  A
C47          O48   1.264       .  A
C47        C1147   1.502   1_454  S
O48         Cr64   2.019       .  S
O49         Cr64   1.995       .  S
O49          C50   1.268       .  A
C50          O51   1.269       .  A
O51         Cr65   2.022       .  S
O52         Cr65   2.037       .  S
O52          C53   1.271       .  A
C53         C889   1.489   1_455  S
O54         Cr63   2.023       .  S
O54          C62   1.265       .  A
O55         Cr63   1.994       .  S
O55          C56   1.266       .  A
C56          O57   1.271       .  A
C56         C386   1.484   1_554  S
O57         Cr64   2.034       .  S
O58         Cr64   2.024       .  S
O58          C59   1.270       .  A
C59          O60   1.265       .  A
O60         Cr65   1.993       .  S
O61         Cr65   2.016       .  S
O61          C62   1.263       .  A
C62         C128   1.496       .  S
Cr63         O66   1.779       .  S
Cr64         O66   1.790       .  S
Cr65         O66   1.789       .  S
O67         Cr85   2.021       .  S
O67          C75   1.266       .  A
O68         Cr85   1.996       .  S
O68          C69   1.265       .  A
C69          O70   1.269       .  A
C69         C817   1.485       .  S
O70         Cr86   2.030       .  S
O71         Cr86   2.025       .  S
O71          C72   1.275       .  A
C72          O73   1.258       .  A
C72          C94   1.486       .  S
O73         Cr87   1.982       .  S
O74         Cr87   2.018       .  S
O74          C75   1.263       .  A
C75         C955   1.498       .  S
O76         Cr85   1.992       .  S
O76          C84   1.265       .  A
O77         Cr85   2.027       .  S
O77          C78   1.266       .  A
C78          O79   1.267       .  A
O79         Cr86   2.033       .  S
O80         Cr86   1.977       .  S
O80          C81   1.263       .  A
C81          O82   1.272       .  A
C81         C125   1.494       .  S
O82         Cr87   2.034       .  S
O83         Cr87   2.017       .  S
O83          C84   1.266       .  A
C84         C150   1.475       .  S
Cr85         O88   1.782       .  S
Cr86         O88   1.785       .  S
Cr87         O88   1.799       .  S
O89        Cr107   2.005       .  S
O89          C97   1.261       .  A
O90        Cr107   2.016       .  S
O90          C91   1.269       .  A
C91          O92   1.264       .  A
C91         C971   1.495       .  S
O92        Cr108   2.014       .  S
O93        Cr108   2.016       .  S
O93          C94   1.272       .  A
C94          O95   1.258       .  A
O95        Cr109   1.988       .  S
O96        Cr109   2.008       .  S
O96          C97   1.264       .  A
C97         C845   1.482       .  S
O98        Cr107   2.017       .  S
O98         C106   1.270       .  A
O99        Cr107   2.011       .  S
O99         C100   1.262       .  A
C100        O101   1.266       .  A
C100        C537   1.501   1_545  S
O101       Cr108   2.028       .  S
O102       Cr108   1.973       .  S
O102        C103   1.259       .  A
C103        O104   1.273       .  A
C103        C116   1.494       .  S
O104       Cr109   2.034       .  S
O105       Cr109   2.013       .  S
O105        C106   1.263       .  A
C106        C399   1.492   1_545  S
Cr107       O110   1.797       .  S
Cr108       O110   1.795       .  S
Cr109       O110   1.808       .  S
O111       Cr129   1.993       .  S
O111        C119   1.265       .  A
O112       Cr129   2.024       .  S
O112        C113   1.267       .  A
C113        O114   1.262       .  A
C113        C568   1.495   1_545  S
O114       Cr130   2.013       .  S
O115       Cr130   2.005       .  S
O115        C116   1.269       .  A
C116        O117   1.264       .  A
O117       Cr131   2.012       .  S
O118       Cr131   2.026       .  S
O118        C119   1.271       .  A
C119        C430   1.481   1_545  S
O120       Cr129   2.019       .  S
O120        C128   1.264       .  A
O121       Cr129   2.003       .  S
O121        C122   1.266       .  A
C122        O123   1.273       .  A
C122        C188   1.495       .  S
O123       Cr130   2.042       .  S
O124       Cr130   2.020       .  S
O124        C125   1.270       .  A
C125        O126   1.267       .  A
O126       Cr131   1.997       .  S
O127       Cr131   2.016       .  S
O127        C128   1.263       .  A
Cr129       O132   1.782       .  S
Cr130       O132   1.787       .  S
Cr131       O132   1.786       .  S
O133       Cr151   2.027       .  S
O133        C141   1.266       .  A
O134       Cr151   2.006       .  S
O134        C135   1.268       .  A
C135        O136   1.268       .  A
C135        C634   1.493       .  S
O136       Cr152   2.031       .  S
O137       Cr152   2.024       .  S
O137        C138   1.275       .  A
C138        O139   1.263       .  A
C138        C169   1.494       .  S
O139       Cr153   1.998       .  S
O140       Cr153   2.005       .  S
O140        C141   1.263       .  A
C141        C496   1.492       .  S
O142       Cr151   1.995       .  S
O142        C150   1.266       .  A
O143       Cr151   2.028       .  S
O143        C144   1.267       .  A
C144        O145   1.266       .  A
C144        C210   1.507       .  S
O145       Cr152   2.026       .  S
O146       Cr152   1.978       .  S
O146        C147   1.261       .  A
C147        O148   1.269       .  A
C147        C191   1.490       .  S
O148       Cr153   2.024       .  S
O149       Cr153   2.014       .  S
O149        C150   1.265       .  A
Cr151       O154   1.785       .  S
Cr152       O154   1.788       .  S
Cr153       O154   1.801       .  S
O155       Cr173   2.007       .  S
O155        C163   1.261       .  A
O156       Cr173   2.013       .  S
O156        C157   1.268       .  A
C157        O158   1.266       .  A
C157        C993   1.494   1_455  S
O158       Cr174   2.023       .  S
O159       Cr174   2.033       .  S
O159        C160   1.275       .  A
C160        O161   1.258       .  A
C160        C182   1.491       .  S
O161       Cr175   1.972       .  S
O162       Cr175   2.026       .  S
O162        C163   1.265       .  A
C163        C867   1.498   1_455  S
O164       Cr173   2.001       .  S
O164        C172   1.266       .  A
O165       Cr173   2.009       .  S
O165        C166   1.262       .  A
C166        O167   1.265       .  A
C166        C647   1.486       .  S
O167       Cr174   2.013       .  S
O168       Cr174   2.001       .  S
O168        C169   1.261       .  A
C169        O170   1.272       .  A
O170       Cr175   2.018       .  S
O171       Cr175   2.013       .  S
O171        C172   1.266       .  A
C172        C509   1.483       .  S
Cr173       O176   1.796       .  S
Cr174       O176   1.802       .  S
Cr175       O176   1.794       .  S
O177       Cr195   1.992       .  S
O177        C185   1.265       .  A
O178       Cr195   2.022       .  S
O178        C179   1.266       .  A
C179        O180   1.264       .  A
C179        C883   1.498   1_455  S
O180       Cr196   2.020       .  S
O181       Cr196   2.003       .  S
O181        C182   1.270       .  A
C182        O183   1.262       .  A
O183       Cr197   2.010       .  S
O184       Cr197   2.025       .  S
O184        C185   1.271       .  A
C185       C1021   1.480   1_455  S
O186       Cr195   2.021       .  S
O186        C194   1.264       .  A
O187       Cr195   2.001       .  S
O187        C188   1.266       .  A
C188        O189   1.274       .  A
O189       Cr196   2.045       .  S
O190       Cr196   2.020       .  S
O190        C191   1.269       .  A
C191        O192   1.268       .  A
O192       Cr197   1.991       .  S
O193       Cr197   2.014       .  S
O193        C194   1.262       .  A
C194        C260   1.496       .  S
Cr195       O198   1.779       .  S
Cr196       O198   1.785       .  S
Cr197       O198   1.787       .  S
O199       Cr217   2.024       .  S
O199        C207   1.266       .  A
O200       Cr217   2.002       .  S
O200        C201   1.267       .  A
C201        O202   1.267       .  A
C201        C949   1.487       .  S
O202       Cr218   2.027       .  S
O203       Cr218   2.019       .  S
O203        C204   1.274       .  A
C204        O205   1.260       .  A
C204        C226   1.484       .  S
O205       Cr219   1.988       .  S
O206       Cr219   2.018       .  S
O206        C207   1.263       .  A
C207       C1087   1.500       .  S
O208       Cr217   2.001       .  S
O208        C216   1.267       .  A
O209       Cr217   2.027       .  S
O209        C210   1.267       .  A
C210        O211   1.266       .  A
O211       Cr218   2.025       .  S
O212       Cr218   1.978       .  S
O212        C213   1.261       .  A
C213        O214   1.273       .  A
C213        C257   1.494       .  S
O214       Cr219   2.032       .  S
O215       Cr219   2.029       .  S
O215        C216   1.269       .  A
C216        C282   1.489       .  S
Cr217       O220   1.782       .  S
Cr218       O220   1.789       .  S
Cr219       O220   1.798       .  S
O221       Cr239   2.005       .  S
O221        C229   1.262       .  A
O222       Cr239   2.013       .  S
O222        C223   1.268       .  A
C223        O224   1.268       .  A
C223       C1103   1.499       .  S
O224       Cr240   2.027       .  S
O225       Cr240   2.012       .  S
O225        C226   1.271       .  A
C226        O227   1.261       .  A
O227       Cr241   1.995       .  S
O228       Cr241   2.008       .  S
O228        C229   1.265       .  A
C229        C977   1.482       .  S
O230       Cr239   2.009       .  S
O230        C238   1.267       .  A
O231       Cr239   2.003       .  S
O231        C232   1.261       .  A
C232        O233   1.266       .  A
C232        C669   1.494   1_545  S
O233       Cr240   2.026       .  S
O234       Cr240   1.987       .  S
O234        C235   1.262       .  A
C235        O236   1.273       .  A
C235        C248   1.500       .  S
O236       Cr241   2.036       .  S
O237       Cr241   2.013       .  S
O237        C238   1.264       .  A
C238        C531   1.485   1_545  S
Cr239       O242   1.793       .  S
Cr240       O242   1.788       .  S
Cr241       O242   1.804       .  S
O243       Cr261   2.005       .  S
O243        C251   1.269       .  A
O244       Cr261   2.029       .  S
O244        C245   1.266       .  A
C245        O246   1.265       .  A
C245        C700   1.498   1_545  S
O246       Cr262   2.013       .  S
O247       Cr262   2.005       .  S
O247        C248   1.270       .  A
C248        O249   1.269       .  A
O249       Cr263   2.023       .  S
O250       Cr263   2.032       .  S
O250        C251   1.269       .  A
C251        C562   1.490   1_545  S
O252       Cr261   2.020       .  S
O252        C260   1.266       .  A
O253       Cr261   2.004       .  S
O253        C254   1.268       .  A
C254        O255   1.268       .  A
C254        C320   1.485       .  S
O255       Cr262   2.024       .  S
O256       Cr262   2.020       .  S
O256        C257   1.265       .  A
C257        O258   1.267       .  A
O258       Cr263   1.994       .  S
O259       Cr263   2.016       .  S
O259        C260   1.263       .  A
Cr261       O264   1.783       .  S
Cr262       O264   1.792       .  S
Cr263       O264   1.793       .  S
O265       Cr283   2.020       .  S
O265        C273   1.268       .  A
O266       Cr283   1.999       .  S
O266        C267   1.265       .  A
C267        O268   1.269       .  A
C267        C766   1.487       .  S
O268       Cr284   2.026       .  S
O269       Cr284   2.011       .  S
O269        C270   1.269       .  A
C270        O271   1.261       .  A
C270        C301   1.485       .  S
O271       Cr285   1.996       .  S
O272       Cr285   2.010       .  S
O272        C273   1.262       .  A
C273        C628   1.492       .  S
O274       Cr283   2.003       .  S
O274        C282   1.265       .  A
O275       Cr283   2.019       .  S
O275        C276   1.265       .  A
C276        O277   1.264       .  A
C276        C342   1.501       .  S
O277       Cr284   2.022       .  S
O278       Cr284   1.984       .  S
O278        C279   1.263       .  A
C279        O280   1.272       .  A
C279        C323   1.492       .  S
O280       Cr285   2.026       .  S
O281       Cr285   2.030       .  S
O281        C282   1.268       .  A
Cr283       O286   1.786       .  S
Cr284       O286   1.786       .  S
Cr285       O286   1.796       .  S
O287       Cr305   2.016       .  S
O287        C295   1.264       .  A
O288       Cr305   2.004       .  S
O288        C289   1.267       .  A
C289        O290   1.267       .  A
C289       C1125   1.483   1_455  S
O290       Cr306   2.016       .  S
O291       Cr306   2.038       .  S
O291        C292   1.272       .  A
C292        O293   1.261       .  A
C292        C314   1.503       .  S
O293       Cr307   1.984       .  S
O294       Cr307   2.023       .  S
O294        C295   1.265       .  A
C295        C999   1.499   1_455  S
O296       Cr305   2.010       .  S
O296        C304   1.269       .  A
O297       Cr305   2.018       .  S
O297        C298   1.263       .  A
C298        O299   1.263       .  A
C298        C779   1.491       .  S
O299       Cr306   2.010       .  S
O300       Cr306   1.999       .  S
O300        C301   1.263       .  A
C301        O302   1.271       .  A
O302       Cr307   2.008       .  S
O303       Cr307   2.027       .  S
O303        C304   1.268       .  A
C304        C641   1.495       .  S
Cr305       O308   1.795       .  S
Cr306       O308   1.803       .  S
Cr307       O308   1.789       .  S
O309       Cr327   2.001       .  S
O309        C317   1.268       .  A
O310       Cr327   2.028       .  S
O310        C311   1.264       .  A
C311        O312   1.265       .  A
C311       C1015   1.499   1_455  S
O312       Cr328   2.015       .  S
O313       Cr328   2.005       .  S
O313        C314   1.270       .  A
C314        O315   1.270       .  A
O315       Cr329   2.028       .  S
O316       Cr329   2.029       .  S
O316        C317   1.270       .  A
C317       C1153   1.486   1_455  S
O318       Cr327   2.026       .  S
O318        C326   1.266       .  A
O319       Cr327   1.997       .  S
O319        C320   1.267       .  A
C320        O321   1.270       .  A
O321       Cr328   2.031       .  S
O322       Cr328   2.019       .  S
O322        C323   1.266       .  A
C323        O324   1.266       .  A
O324       Cr329   1.991       .  S
O325       Cr329   2.024       .  S
O325        C326   1.265       .  A
C326        C392   1.503       .  S
Cr327       O330   1.782       .  S
Cr328       O330   1.790       .  S
Cr329       O330   1.793       .  S
O331       Cr349   2.026       .  S
O331        C339   1.266       .  A
O332       Cr349   1.993       .  S
O332        C333   1.266       .  A
C333        O334   1.271       .  A
C333       C1081   1.484       .  S
O334       Cr350   2.033       .  S
O335       Cr350   2.027       .  S
O335        C336   1.272       .  A
C336        O337   1.265       .  A
C336        C358   1.497       .  S
O337       Cr351   1.993       .  S
O338       Cr351   2.028       .  S
O338        C339   1.266       .  A
C339        C823   1.508   1_556  S
O340       Cr349   1.991       .  S
O340        C348   1.265       .  A
O341       Cr349   2.022       .  S
O341        C342   1.265       .  A
C342        O343   1.265       .  A
O343       Cr350   2.025       .  S
O344       Cr350   1.991       .  S
O344        C345   1.266       .  A
C345        O346   1.269       .  A
C345        C389   1.492       .  S
O346       Cr351   2.024       .  S
O347       Cr351   2.026       .  S
O347        C348   1.269       .  A
Cr349       O352   1.779       .  S
Cr350       O352   1.789       .  S
Cr351       O352   1.788       .  S
O353       Cr371   2.007       .  S
O353        C361   1.268       .  A
O354       Cr371   2.018       .  S
O354        C355   1.265       .  A
C355        O356   1.265       .  A
C355        C839   1.501   1_556  S
O356       Cr372   2.024       .  S
O357       Cr372   1.989       .  S
O357        C358   1.266       .  A
C358        O359   1.270       .  A
O359       Cr373   2.026       .  S
O360       Cr373   2.030       .  S
O360        C361   1.269       .  A
C361       C1109   1.493       .  S
O362       Cr371   2.016       .  S
O362        C370   1.263       .  A
O363       Cr371   2.006       .  S
O363        C364   1.267       .  A
C364        O365   1.269       .  A
C364        C405   1.492   1_546  S
O365       Cr372   2.028       .  S
O366       Cr372   2.011       .  S
O366        C367   1.270       .  A
C367        O368   1.263       .  A
C367        C380   1.487       .  S
O368       Cr373   2.001       .  S
O369       Cr373   2.002       .  S
O369        C370   1.261       .  A
C370        C663   1.482   1_545  S
Cr371       O374   1.791       .  S
Cr372       O374   1.788       .  S
Cr373       O374   1.798       .  S
O375       Cr393   2.004       .  S
O375        C383   1.267       .  A
O376       Cr393   2.020       .  S
O376        C377   1.266       .  A
C377        O378   1.263       .  A
C377        C436   1.485   1_546  S
O378       Cr394   2.003       .  S
O379       Cr394   2.003       .  S
O379        C380   1.263       .  A
C380        O381   1.269       .  A
O381       Cr395   2.010       .  S
O382       Cr395   2.021       .  S
O382        C383   1.267       .  A
C383        C694   1.487   1_545  S
O384       Cr393   2.020       .  S
O384        C392   1.265       .  A
O385       Cr393   2.004       .  S
O385        C386   1.265       .  A
C386        O387   1.266       .  A
O387       Cr394   2.018       .  S
O388       Cr394   2.024       .  S
O388        C389   1.270       .  A
C389        O390   1.263       .  A
O390       Cr395   1.985       .  S
O391       Cr395   2.024       .  S
O391        C392   1.265       .  A
Cr393       O396   1.790       .  S
Cr394       O396   1.800       .  S
Cr395       O396   1.788       .  S
O397       Cr415   2.019       .  S
O397        C405   1.264       .  A
O398       Cr415   2.007       .  S
O398        C399   1.269       .  A
C399        O400   1.267       .  A
O400       Cr416   2.028       .  S
O401       Cr416   2.019       .  S
O401        C402   1.274       .  A
C402        O403   1.263       .  A
C402        C433   1.491       .  S
O403       Cr417   1.998       .  S
O404       Cr417   2.011       .  S
O404        C405   1.265       .  A
O406       Cr415   2.000       .  S
O406        C414   1.266       .  A
O407       Cr415   2.018       .  S
O407        C408   1.264       .  A
C408        O409   1.265       .  A
C408        C474   1.497       .  S
O409       Cr416   2.019       .  S
O410       Cr416   1.975       .  S
O410        C411   1.260       .  A
C411        O412   1.270       .  A
C411        C455   1.489       .  S
O412       Cr417   2.028       .  S
O413       Cr417   2.016       .  S
O413        C414   1.266       .  A
C414        C744   1.480   1_554  S
Cr415       O418   1.786       .  S
Cr416       O418   1.789       .  S
Cr417       O418   1.801       .  S
O419       Cr437   2.017       .  S
O419        C427   1.263       .  A
O420       Cr437   2.003       .  S
O420        C421   1.267       .  A
C421        O422   1.268       .  A
C421       C1257   1.487   1_455  S
O422       Cr438   2.025       .  S
O423       Cr438   2.030       .  S
O423        C424   1.272       .  A
C424        O425   1.263       .  A
C424        C446   1.496       .  S
O425       Cr439   1.984       .  S
O426       Cr439   2.025       .  S
O426        C427   1.265       .  A
C427       C1527   1.501   1_454  S
O428       Cr437   1.998       .  S
O428        C436   1.266       .  A
O429       Cr437   2.011       .  S
O429        C430   1.262       .  A
C430        O431   1.262       .  A
O431       Cr438   2.005       .  S
O432       Cr438   2.001       .  S
O432        C433   1.262       .  A
C433        O434   1.271       .  A
O434       Cr439   2.014       .  S
O435       Cr439   2.025       .  S
O435        C436   1.269       .  A
Cr437       O440   1.791       .  S
Cr438       O440   1.799       .  S
Cr439       O440   1.786       .  S
O441       Cr459   1.995       .  S
O441        C449   1.267       .  A
O442       Cr459   2.026       .  S
O442        C443   1.265       .  A
C443        O444   1.263       .  A
C443       C1543   1.497   1_454  S
O444       Cr460   2.013       .  S
O445       Cr460   1.994       .  S
O445        C446   1.267       .  A
C446        O447   1.269       .  A
O447       Cr461   2.025       .  S
O448       Cr461   2.030       .  S
O448        C449   1.271       .  A
C449       C1285   1.483   1_455  S
O450       Cr459   2.025       .  S
O450        C458   1.265       .  A
O451       Cr459   1.995       .  S
O451        C452   1.266       .  A
C452        O453   1.270       .  A
C452        C782   1.482   1_554  S
O453       Cr460   2.030       .  S
O454       Cr460   2.016       .  S
O454        C455   1.267       .  A
C455        O456   1.267       .  A
O456       Cr461   1.993       .  S
O457       Cr461   2.021       .  S
O457        C458   1.264       .  A
C458        C524   1.501       .  S
Cr459       O462   1.777       .  S
Cr460       O462   1.787       .  S
Cr461       O462   1.786       .  S
O463       Cr481   2.027       .  S
O463        C471   1.267       .  A
O464       Cr481   1.998       .  S
O464        C465   1.266       .  A
C465        O466   1.271       .  A
C465       C1213   1.488       .  S
O466       Cr482   2.035       .  S
O467       Cr482   2.023       .  S
O467        C468   1.270       .  A
C468        O469   1.266       .  A
C468        C490   1.498       .  S
O469       Cr483   2.001       .  S
O470       Cr483   2.024       .  S
O470        C471   1.264       .  A
C471       C1351   1.504       .  S
O472       Cr481   2.004       .  S
O472        C480   1.267       .  A
O473       Cr481   2.024       .  S
O473        C474   1.266       .  A
C474        O475   1.262       .  A
O475       Cr482   2.015       .  S
O476       Cr482   1.992       .  S
O476        C477   1.266       .  A
C477        O478   1.270       .  A
C477        C521   1.493       .  S
O478       Cr483   2.023       .  S
O479       Cr483   2.045       .  S
O479        C480   1.274       .  A
C480        C546   1.498       .  S
Cr481       O484   1.780       .  S
Cr482       O484   1.790       .  S
Cr483       O484   1.788       .  S
O485       Cr503   2.007       .  S
O485        C493   1.267       .  A
O486       Cr503   2.011       .  S
O486        C487   1.262       .  A
C487        O488   1.265       .  A
C487       C1367   1.498       .  S
O488       Cr504   2.023       .  S
O489       Cr504   1.986       .  S
O489        C490   1.265       .  A
C490        O491   1.270       .  A
O491       Cr505   2.032       .  S
O492       Cr505   2.022       .  S
O492        C493   1.268       .  A
C493       C1241   1.489       .  S
O494       Cr503   2.017       .  S
O494        C502   1.264       .  A
O495       Cr503   2.007       .  S
O495        C496   1.268       .  A
C496        O497   1.268       .  A
O497       Cr504   2.025       .  S
O498       Cr504   2.007       .  S
O498        C499   1.269       .  A
C499        O500   1.263       .  A
C499        C512   1.485       .  S
O500       Cr505   2.001       .  S
O501       Cr505   2.009       .  S
O501        C502   1.264       .  A
Cr503       O506   1.792       .  S
Cr504       O506   1.788       .  S
Cr505       O506   1.800       .  S
O507       Cr525   2.001       .  S
O507        C515   1.268       .  A
O508       Cr525   2.019       .  S
O508        C509   1.264       .  A
C509        O510   1.262       .  A
O510       Cr526   2.002       .  S
O511       Cr526   1.994       .  S
O511        C512   1.261       .  A
C512        O513   1.269       .  A
O513       Cr527   2.011       .  S
O514       Cr527   2.024       .  S
O514        C515   1.270       .  A
O516       Cr525   2.018       .  S
O516        C524   1.263       .  A
O517       Cr525   1.991       .  S
O517        C518   1.265       .  A
C518        O519   1.266       .  A
C518        C584   1.475       .  S
O519       Cr526   2.019       .  S
O520       Cr526   2.026       .  S
O520        C521   1.270       .  A
C521        O522   1.264       .  A
O522       Cr527   1.985       .  S
O523       Cr527   2.023       .  S
O523        C524   1.263       .  A
Cr525       O528   1.788       .  S
Cr526       O528   1.799       .  S
Cr527       O528   1.785       .  S
O529       Cr547   2.028       .  S
O529        C537   1.267       .  A
O530       Cr547   1.999       .  S
O530        C531   1.267       .  A
C531        O532   1.269       .  A
O532       Cr548   2.029       .  S
O533       Cr548   2.026       .  S
O533        C534   1.269       .  A
C534        O535   1.268       .  A
C534        C565   1.500       .  S
O535       Cr549   2.002       .  S
O536       Cr549   2.018       .  S
O536        C537   1.263       .  A
O538       Cr547   2.007       .  S
O538        C546   1.267       .  A
O539       Cr547   2.021       .  S
O539        C540   1.266       .  A
C540        O541   1.264       .  A
C540        C606   1.496       .  S
O541       Cr548   2.015       .  S
O542       Cr548   1.990       .  S
O542        C543   1.265       .  A
C543        O544   1.270       .  A
C543        C587   1.492       .  S
O544       Cr549   2.022       .  S
O545       Cr549   2.041       .  S
O545        C546   1.273       .  A
Cr547       O550   1.780       .  S
Cr548       O550   1.790       .  S
Cr549       O550   1.788       .  S
O551       Cr569   2.014       .  S
O551        C559   1.269       .  A
O552       Cr569   2.012       .  S
O552        C553   1.263       .  A
C553        O554   1.262       .  A
C553       C1389   1.484   1_455  S
O554       Cr570   2.005       .  S
O555       Cr570   1.991       .  S
O555        C556   1.260       .  A
C556        O557   1.270       .  A
C556        C578   1.481       .  S
O557       Cr571   2.008       .  S
O558       Cr571   2.027       .  S
O558        C559   1.268       .  A
C559       C1263   1.498   1_455  S
O560       Cr569   2.013       .  S
O560        C568   1.263       .  A
O561       Cr569   2.011       .  S
O561        C562   1.269       .  A
C562        O563   1.265       .  A
O563       Cr570   2.017       .  S
O564       Cr570   2.033       .  S
O564        C565   1.271       .  A
C565        O566   1.263       .  A
O566       Cr571   1.987       .  S
O567       Cr571   2.019       .  S
O567        C568   1.265       .  A
Cr569       O572   1.793       .  S
Cr570       O572   1.803       .  S
Cr571       O572   1.791       .  S
O573       Cr591   1.996       .  S
O573        C581   1.266       .  A
O574       Cr591   2.022       .  S
O574        C575   1.265       .  A
C575        O576   1.263       .  A
C575       C1279   1.494   1_455  S
O576       Cr592   2.012       .  S
O577       Cr592   1.985       .  S
O577        C578   1.258       .  A
C578        O579   1.270       .  A
O579       Cr593   2.012       .  S
O580       Cr593   2.022       .  S
O580        C581   1.269       .  A
C581       C1417   1.482   1_455  S
O582       Cr591   2.020       .  S
O582        C590   1.263       .  A
O583       Cr591   1.995       .  S
O583        C584   1.265       .  A
C584        O585   1.266       .  A
O585       Cr592   2.015       .  S
O586       Cr592   2.028       .  S
O586        C587   1.270       .  A
C587        O588   1.266       .  A
O588       Cr593   1.983       .  S
O589       Cr593   2.033       .  S
O589        C590   1.267       .  A
C590        C656   1.509       .  S
Cr591       O594   1.786       .  S
Cr592       O594   1.797       .  S
Cr593       O594   1.783       .  S
O595       Cr613   2.024       .  S
O595        C603   1.267       .  A
O596       Cr613   2.001       .  S
O596        C597   1.267       .  A
C597        O598   1.268       .  A
C597       C1345   1.488       .  S
O598       Cr614   2.029       .  S
O599       Cr614   2.019       .  S
O599        C600   1.274       .  A
C600        O601   1.262       .  A
C600        C622   1.490       .  S
O601       Cr615   1.995       .  S
O602       Cr615   2.017       .  S
O602        C603   1.263       .  A
C603       C1483   1.500       .  S
O604       Cr613   1.996       .  S
O604        C612   1.265       .  A
O605       Cr613   2.021       .  S
O605        C606   1.265       .  A
C606        O607   1.264       .  A
O607       Cr614   2.017       .  S
O608       Cr614   1.977       .  S
O608        C609   1.262       .  A
C609        O610   1.272       .  A
C609        C653   1.492       .  S
O610       Cr615   2.031       .  S
O611       Cr615   2.027       .  S
O611        C612   1.269       .  A
C612        C678   1.483       .  S
Cr613       O616   1.783       .  S
Cr614       O616   1.786       .  S
Cr615       O616   1.796       .  S
O617       Cr635   1.998       .  S
O617        C625   1.259       .  A
O618       Cr635   2.020       .  S
O618        C619   1.271       .  A
C619        O620   1.269       .  A
C619       C1499   1.507       .  S
O620       Cr636   2.030       .  S
O621       Cr636   2.015       .  S
O621        C622   1.272       .  A
C622        O623   1.261       .  A
O623       Cr637   1.998       .  S
O624       Cr637   2.003       .  S
O624        C625   1.263       .  A
C625       C1373   1.475       .  S
O626       Cr635   2.015       .  S
O626        C634   1.269       .  A
O627       Cr635   2.000       .  S
O627        C628   1.259       .  A
C628        O629   1.265       .  A
O629       Cr636   2.024       .  S
O630       Cr636   1.981       .  S
O630        C631   1.260       .  A
C631        O632   1.273       .  A
C631        C644   1.498       .  S
O632       Cr637   2.035       .  S
O633       Cr637   2.020       .  S
O633        C634   1.266       .  A
Cr635       O638   1.798       .  S
Cr636       O638   1.791       .  S
Cr637       O638   1.808       .  S
O639       Cr657   1.996       .  S
O639        C647   1.266       .  A
O640       Cr657   2.029       .  S
O640        C641   1.266       .  A
C641        O642   1.264       .  A
O642       Cr658   2.010       .  S
O643       Cr658   2.004       .  S
O643        C644   1.270       .  A
C644        O645   1.266       .  A
O645       Cr659   2.019       .  S
O646       Cr659   2.032       .  S
O646        C647   1.272       .  A
O648       Cr657   2.032       .  S
O648        C656   1.268       .  A
O649       Cr657   1.994       .  S
O649        C650   1.266       .  A
C650        O651   1.269       .  A
C650        C716   1.480       .  S
O651       Cr658   2.026       .  S
O652       Cr658   2.018       .  S
O652        C653   1.267       .  A
C653        O654   1.267       .  A
O654       Cr659   1.994       .  S
O655       Cr659   2.025       .  S
O655        C656   1.263       .  A
Cr657       O660   1.783       .  S
Cr658       O660   1.791       .  S
Cr659       O660   1.790       .  S
O661       Cr679   2.021       .  S
O661        C669   1.267       .  A
O662       Cr679   1.992       .  S
O662        C663   1.264       .  A
C663        O664   1.269       .  A
O664       Cr680   2.025       .  S
O665       Cr680   2.011       .  S
O665        C666   1.270       .  A
C666        O667   1.258       .  A
C666        C697   1.477       .  S
O667       Cr681   1.983       .  S
O668       Cr681   2.015       .  S
O668        C669   1.262       .  A
O670       Cr679   1.996       .  S
O670        C678   1.264       .  A
O671       Cr679   2.020       .  S
O671        C672   1.264       .  A
C672        O673   1.266       .  A
C672        C738   1.506       .  S
O673       Cr680   2.028       .  S
O674       Cr680   1.984       .  S
O674        C675   1.264       .  A
C675        O676   1.273       .  A
C675        C719   1.496       .  S
O676       Cr681   2.032       .  S
O677       Cr681   2.025       .  S
O677        C678   1.267       .  A
Cr679       O682   1.784       .  S
Cr680       O682   1.784       .  S
Cr681       O682   1.798       .  S
O683       Cr701   2.008       .  S
O683        C691   1.262       .  A
O684       Cr701   2.004       .  S
O684        C685   1.266       .  A
C685        O686   1.264       .  A
C685       C1521   1.480   1_455  S
O686       Cr702   2.010       .  S
O687       Cr702   2.034       .  S
O687        C688   1.270       .  A
C688        O689   1.264       .  A
C688        C710   1.500       .  S
O689       Cr703   1.987       .  S
O690       Cr703   2.023       .  S
O690        C691   1.266       .  A
C691       C1395   1.494   1_455  S
O692       Cr701   2.015       .  S
O692        C700   1.270       .  A
O693       Cr701   2.014       .  S
O693        C694   1.263       .  A
C694        O695   1.264       .  A
O695       Cr702   2.007       .  S
O696       Cr702   1.987       .  S
O696        C697   1.260       .  A
C697        O698   1.271       .  A
O698       Cr703   2.008       .  S
O699       Cr703   2.026       .  S
O699        C700   1.267       .  A
Cr701       O704   1.792       .  S
Cr702       O704   1.802       .  S
Cr703       O704   1.789       .  S
O705       Cr723   2.003       .  S
O705        C713   1.268       .  A
O706       Cr723   2.030       .  S
O706        C707   1.266       .  A
C707        O708   1.265       .  A
C707       C1411   1.500   1_455  S
O708       Cr724   2.015       .  S
O709       Cr724   2.006       .  S
O709        C710   1.268       .  A
C710        O711   1.271       .  A
O711       Cr725   2.023       .  S
O712       Cr725   2.028       .  S
O712        C713   1.269       .  A
C713       C1549   1.487   1_455  S
O714       Cr723   2.030       .  S
O714        C722   1.267       .  A
O715       Cr723   1.998       .  S
O715        C716   1.267       .  A
C716        O717   1.269       .  A
O717       Cr724   2.023       .  S
O718       Cr724   2.022       .  S
O718        C719   1.267       .  A
C719        O720   1.266       .  A
O720       Cr725   1.994       .  S
O721       Cr725   2.022       .  S
O721        C722   1.266       .  A
C722        C788   1.505       .  S
Cr723       O726   1.783       .  S
Cr724       O726   1.793       .  S
Cr725       O726   1.790       .  S
O727       Cr745   2.027       .  S
O727        C735   1.267       .  A
O728       Cr745   1.994       .  S
O728        C729   1.266       .  A
C729        O730   1.271       .  A
C729       C1477   1.484       .  S
O730       Cr746   2.033       .  S
O731       Cr746   2.027       .  S
O731        C732   1.269       .  A
C732        O733   1.267       .  A
C732        C754   1.495       .  S
O733       Cr747   1.992       .  S
O734       Cr747   2.020       .  S
O734        C735   1.264       .  A
C735       C1219   1.503   1_556  S
O736       Cr745   1.993       .  S
O736        C744   1.265       .  A
O737       Cr745   2.028       .  S
O737        C738   1.267       .  A
C738        O739   1.264       .  A
O739       Cr746   2.026       .  S
O740       Cr746   1.994       .  S
O740        C741   1.266       .  A
C741        O742   1.269       .  A
C741        C785   1.491       .  S
O742       Cr747   2.019       .  S
O743       Cr747   2.028       .  S
O743        C744   1.269       .  A
Cr745       O748   1.776       .  S
Cr746       O748   1.787       .  S
Cr747       O748   1.788       .  S
O749       Cr767   2.003       .  S
O749        C757   1.266       .  A
O750       Cr767   2.018       .  S
O750        C751   1.264       .  A
C751        O752   1.265       .  A
C751       C1235   1.503   1_556  S
O752       Cr768   2.025       .  S
O753       Cr768   1.987       .  S
O753        C754   1.263       .  A
C754        O755   1.272       .  A
O755       Cr769   2.027       .  S
O756       Cr769   2.030       .  S
O756        C757   1.269       .  A
C757       C1505   1.490       .  S
O758       Cr767   2.021       .  S
O758        C766   1.265       .  A
O759       Cr767   2.004       .  S
O759        C760   1.267       .  A
C760        O761   1.269       .  A
O761       Cr768   2.028       .  S
O762       Cr768   2.012       .  S
O762        C763   1.270       .  A
C763        O764   1.264       .  A
C763        C776   1.493       .  S
O764       Cr769   2.008       .  S
O765       Cr769   2.005       .  S
O765        C766   1.263       .  A
Cr767       O770   1.793       .  S
Cr768       O770   1.790       .  S
Cr769       O770   1.802       .  S
O771       Cr789   2.006       .  S
O771        C779   1.268       .  A
O772       Cr789   2.024       .  S
O772        C773   1.265       .  A
C773        O774   1.264       .  A
O774       Cr790   2.007       .  S
O775       Cr790   2.005       .  S
O775        C776   1.264       .  A
C776        O777   1.270       .  A
O777       Cr791   2.014       .  S
O778       Cr791   2.023       .  S
O778        C779   1.268       .  A
O780       Cr789   2.024       .  S
O780        C788   1.266       .  A
O781       Cr789   1.999       .  S
O781        C782   1.265       .  A
C782        O783   1.267   1_556  A
O783       Cr790   2.022   1_554  S
O784       Cr790   2.026       .  S
O784        C785   1.269       .  A
C785        O786   1.263       .  A
O786       Cr791   1.979       .  S
O787       Cr791   2.024       .  S
O787        C788   1.264       .  A
Cr789       O792   1.791       .  S
Cr790       O792   1.801       .  S
Cr791       O792   1.789       .  S
O793       Cr811   2.023       .  S
O793        C801   1.265       .  A
O794       Cr811   1.999       .  S
O794        C795   1.266       .  A
C795        O796   1.268       .  A
C795       C1294   1.484       .  S
O796       Cr812   2.022       .  S
O797       Cr812   2.016       .  S
O797        C798   1.272       .  A
C798        O799   1.264       .  A
C798        C829   1.496       .  S
O799       Cr813   2.006       .  S
O800       Cr813   2.011       .  S
O800        C801   1.264       .  A
C801       C1552   1.493   1_554  S
O802       Cr811   2.002       .  S
O802        C810   1.266       .  A
O803       Cr811   2.019       .  S
O803        C804   1.263       .  A
C804        O805   1.265       .  A
C804        C870   1.503       .  S
O805       Cr812   2.027       .  S
O806       Cr812   1.982       .  S
O806        C807   1.262       .  A
C807        O808   1.271       .  A
C807        C851   1.497       .  S
O808       Cr813   2.031       .  S
O809       Cr813   2.022       .  S
O809        C810   1.268       .  A
C810       C1140   1.485   1_554  S
Cr811       O814   1.796       .  S
Cr812       O814   1.791       .  S
Cr813       O814   1.800       .  S
O815       Cr833   2.023       .  S
O815        C823   1.265       .  A
O816       Cr833   2.005       .  S
O816        C817   1.266       .  A
C817        O818   1.266       .  A
O818       Cr834   2.021       .  S
O819       Cr834   2.025       .  S
O819        C820   1.270       .  A
C820        O821   1.262       .  A
C820        C842   1.489       .  S
O821       Cr835   1.977       .  S
O822       Cr835   2.029       .  S
O822        C823   1.265       .  A
O824       Cr833   2.005       .  S
O824        C832   1.268       .  A
O825       Cr833   2.026       .  S
O825        C826   1.266       .  A
C826        O827   1.264       .  A
C826       C1307   1.493       .  S
O827       Cr834   2.009       .  S
O828       Cr834   2.002       .  S
O828        C829   1.262       .  A
C829        O830   1.271       .  A
O830       Cr835   2.019       .  S
O831       Cr835   2.023       .  S
O831        C832   1.269       .  A
C832       C1565   1.490   1_554  S
Cr833       O836   1.793       .  S
Cr834       O836   1.801       .  S
Cr835       O836   1.791       .  S
O837       Cr855   1.992       .  S
O837        C845   1.265       .  A
O838       Cr855   2.025       .  S
O838        C839   1.266       .  A
C839        O840   1.265       .  A
O840       Cr856   2.021       .  S
O841       Cr856   1.992       .  S
O841        C842   1.265       .  A
C842        O843   1.266       .  A
O843       Cr857   2.014       .  S
O844       Cr857   2.029       .  S
O844        C845   1.271       .  A
O846       Cr855   2.026       .  S
O846        C854   1.266       .  A
O847       Cr855   1.995       .  S
O847        C848   1.266       .  A
C848        O849   1.270       .  A
C848       C1178   1.485   1_554  S
O849       Cr856   2.033       .  S
O850       Cr856   2.024       .  S
O850        C851   1.270       .  A
C851        O852   1.269       .  A
O852       Cr857   1.999       .  S
O853       Cr857   2.025       .  S
O853        C854   1.264       .  A
C854        C920   1.507       .  S
Cr855       O858   1.781       .  S
Cr856       O858   1.789       .  S
Cr857       O858   1.789       .  S
O859       Cr877   2.021       .  S
O859        C867   1.265       .  A
O860       Cr877   1.994       .  S
O860        C861   1.266       .  A
C861        O862   1.270       .  A
O862       Cr878   2.033       .  S
O863       Cr878   2.026       .  S
O863        C864   1.271       .  A
C864        O865   1.264       .  A
C864        C886   1.493       .  S
O865       Cr879   1.988       .  S
O866       Cr879   2.020       .  S
O866        C867   1.263       .  A
O868       Cr877   1.996       .  S
O868        C876   1.267       .  A
O869       Cr877   2.025       .  S
O869        C870   1.266       .  A
C870        O871   1.264       .  A
O871       Cr878   2.023       .  S
O872       Cr878   1.994       .  S
O872        C873   1.267       .  A
C873        O874   1.270       .  A
C873        C917   1.499       .  S
O874       Cr879   2.028       .  S
O875       Cr879   2.030       .  S
O875        C876   1.270       .  A
C876        C942   1.483       .  S
Cr877       O880   1.779       .  S
Cr878       O880   1.787       .  S
Cr879       O880   1.790       .  S
O881       Cr899   2.008       .  S
O881        C889   1.267       .  A
O882       Cr899   2.010       .  S
O882        C883   1.262       .  A
C883        O884   1.265       .  A
O884       Cr900   2.027       .  S
O885       Cr900   1.986       .  S
O885        C886   1.265       .  A
C886        O887   1.268       .  A
O887       Cr901   2.024       .  S
O888       Cr901   2.022       .  S
O888        C889   1.267       .  A
O890       Cr899   2.020       .  S
O890        C898   1.265       .  A
O891       Cr899   2.012       .  S
O891        C892   1.270       .  A
C892        O893   1.270       .  A
C892       C1329   1.500   1_545  S
O893       Cr900   2.032       .  S
O894       Cr900   2.016       .  S
O894        C895   1.272       .  A
C895        O896   1.263       .  A
C895        C908   1.493       .  S
O896       Cr901   2.003       .  S
O897       Cr901   2.002       .  S
O897        C898   1.262       .  A
C898       C1191   1.486   1_545  S
Cr899       O902   1.794       .  S
Cr900       O902   1.790       .  S
Cr901       O902   1.803       .  S
O903       Cr921   2.002       .  S
O903        C911   1.268       .  A
O904       Cr921   2.025       .  S
O904        C905   1.265       .  A
C905        O906   1.264       .  A
C905       C1360   1.492   1_545  S
O906       Cr922   2.009       .  S
O907       Cr922   1.997       .  S
O907        C908   1.261       .  A
C908        O909   1.272       .  A
O909       Cr923   2.019       .  S
O910       Cr923   2.031       .  S
O910        C911   1.271       .  A
C911       C1222   1.493   1_545  S
O912       Cr921   2.019       .  S
O912        C920   1.263       .  A
O913       Cr921   1.994       .  S
O913        C914   1.265       .  A
C914        O915   1.265       .  A
C914        C980   1.475       .  S
O915       Cr922   2.015       .  S
O916       Cr922   2.033       .  S
O916        C917   1.272       .  A
C917        O918   1.264       .  A
O918       Cr923   1.985       .  S
O919       Cr923   2.032       .  S
O919        C920   1.265       .  A
Cr921       O924   1.794       .  S
Cr922       O924   1.803       .  S
Cr923       O924   1.789       .  S
O925       Cr943   2.025       .  S
O925        C933   1.266       .  A
O926       Cr943   2.006       .  S
O926        C927   1.267       .  A
C927        O928   1.267       .  A
C927       C1426   1.493       .  S
O928       Cr944   2.031       .  S
O929       Cr944   2.025       .  S
O929        C930   1.275       .  A
C930        O931   1.264       .  A
C930        C961   1.497       .  S
O931       Cr945   2.004       .  S
O932       Cr945   2.011       .  S
O932        C933   1.264       .  A
C933       C1288   1.496       .  S
O934       Cr943   2.001       .  S
O934        C942   1.266       .  A
O935       Cr943   2.026       .  S
O935        C936   1.267       .  A
C936        O937   1.266       .  A
C936       C1002   1.506       .  S
O937       Cr944   2.026       .  S
O938       Cr944   1.982       .  S
O938        C939   1.260       .  A
C939        O940   1.272       .  A
C939        C983   1.496       .  S
O940       Cr945   2.031       .  S
O941       Cr945   2.020       .  S
O941        C942   1.267       .  A
Cr943       O946   1.790       .  S
Cr944       O946   1.792       .  S
Cr945       O946   1.803       .  S
O947       Cr965   2.010       .  S
O947        C955   1.261       .  A
O948       Cr965   2.006       .  S
O948        C949   1.267       .  A
C949        O950   1.266       .  A
O950       Cr966   2.021       .  S
O951       Cr966   2.031       .  S
O951        C952   1.273       .  A
C952        O953   1.262       .  A
C952        C974   1.495       .  S
O953       Cr967   1.982       .  S
O954       Cr967   2.027       .  S
O954        C955   1.265       .  A
O956       Cr965   2.005       .  S
O956        C964   1.268       .  A
O957       Cr965   2.014       .  S
O957        C958   1.263       .  A
C958        O959   1.265       .  A
C958       C1439   1.486       .  S
O959       Cr966   2.010       .  S
O960       Cr966   2.002       .  S
O960        C961   1.262       .  A
C961        O962   1.273       .  A
O962       Cr967   2.022       .  S
O963       Cr967   2.027       .  S
O963        C964   1.270       .  A
C964       C1301   1.492       .  S
Cr965       O968   1.795       .  S
Cr966       O968   1.800       .  S
Cr967       O968   1.791       .  S
O969       Cr987   1.993       .  S
O969        C977   1.266       .  A
O970       Cr987   2.024       .  S
O970        C971   1.264       .  A
C971        O972   1.266       .  A
O972       Cr988   2.015       .  S
O973       Cr988   2.000       .  S
O973        C974   1.268       .  A
C974        O975   1.265       .  A
O975       Cr989   2.016       .  S
O976       Cr989   2.030       .  S
O976        C977   1.272       .  A
O978       Cr987   2.027       .  S
O978        C986   1.265       .  A
O979       Cr987   1.992       .  S
O979        C980   1.267       .  A
C980        O981   1.267       .  A
O981       Cr988   2.020       .  S
O982       Cr988   2.021       .  S
O982        C983   1.267       .  A
C983        O984   1.269       .  A
O984       Cr989   1.998       .  S
O985       Cr989   2.024       .  S
O985        C986   1.263       .  A
C986       C1052   1.506       .  S
Cr987       O990   1.785       .  S
Cr988       O990   1.791       .  S
Cr989       O990   1.790       .  S
O991      Cr1009   2.024       .  S
O991        C999   1.265       .  A
O992      Cr1009   2.005       .  S
O992        C993   1.267       .  A
C993        O994   1.269       .  A
O994      Cr1010   2.036       .  S
O995      Cr1010   2.021       .  S
O995        C996   1.274       .  A
C996        O997   1.261       .  A
C996       C1018   1.489       .  S
O997      Cr1011   1.992       .  S
O998      Cr1011   2.017       .  S
O998        C999   1.263       .  A
O1000     Cr1009   2.001       .  S
O1000      C1008   1.267       .  A
O1001     Cr1009   2.026       .  S
O1001      C1002   1.266       .  A
C1002      O1003   1.266       .  A
O1003     Cr1010   2.026       .  S
O1004     Cr1010   1.987       .  S
O1004      C1005   1.263       .  A
C1005      O1006   1.274       .  A
C1005      C1049   1.502       .  S
O1006     Cr1011   2.036       .  S
O1007     Cr1011   2.030       .  S
O1007      C1008   1.270       .  A
C1008      C1074   1.489       .  S
Cr1009     O1012   1.786       .  S
Cr1010     O1012   1.788       .  S
Cr1011     O1012   1.800       .  S
O1013     Cr1031   2.002       .  S
O1013      C1021   1.261       .  A
O1014     Cr1031   2.019       .  S
O1014      C1015   1.270       .  A
C1015      O1016   1.266       .  A
O1016     Cr1032   2.022       .  S
O1017     Cr1032   2.014       .  S
O1017      C1018   1.272       .  A
C1018      O1019   1.262       .  A
O1019     Cr1033   2.000       .  S
O1020     Cr1033   2.009       .  S
O1020      C1021   1.265       .  A
O1022     Cr1031   2.020       .  S
O1022      C1030   1.270       .  A
O1023     Cr1031   2.002       .  S
O1023      C1024   1.261       .  A
C1024      O1025   1.266       .  A
C1024      C1461   1.494   1_545  S
O1025     Cr1032   2.024       .  S
O1026     Cr1032   1.981       .  S
O1026      C1027   1.260       .  A
C1027      O1028   1.273       .  A
C1027      C1040   1.500       .  S
O1028     Cr1033   2.037       .  S
O1029     Cr1033   2.020       .  S
O1029      C1030   1.266       .  A
C1030      C1323   1.498   1_545  S
Cr1031     O1034   1.797       .  S
Cr1032     O1034   1.793       .  S
Cr1033     O1034   1.805       .  S
O1035     Cr1053   1.994       .  S
O1035      C1043   1.266       .  A
O1036     Cr1053   2.025       .  S
O1036      C1037   1.264       .  A
C1037      O1038   1.265       .  A
C1037      C1492   1.495   1_545  S
O1038     Cr1054   2.015       .  S
O1039     Cr1054   2.010       .  S
O1039      C1040   1.270       .  A
C1040      O1041   1.266       .  A
O1041     Cr1055   2.017       .  S
O1042     Cr1055   2.030       .  S
O1042      C1043   1.272       .  A
C1043      C1354   1.483   1_545  S
O1044     Cr1053   2.025       .  S
O1044      C1052   1.264       .  A
O1045     Cr1053   1.998       .  S
O1045      C1046   1.267       .  A
C1046      O1047   1.272       .  A
C1046      C1112   1.489       .  S
O1047     Cr1054   2.036       .  S
O1048     Cr1054   2.026       .  S
O1048      C1049   1.269       .  A
C1049      O1050   1.269       .  A
O1050     Cr1055   2.000       .  S
O1051     Cr1055   2.024       .  S
O1051      C1052   1.264       .  A
Cr1053     O1056   1.789       .  S
Cr1054     O1056   1.794       .  S
Cr1055     O1056   1.791       .  S
O1057     Cr1075   2.021       .  S
O1057      C1065   1.266       .  A
O1058     Cr1075   1.997       .  S
O1058      C1059   1.266       .  A
C1059      O1060   1.270       .  A
C1059      C1558   1.486       .  S
O1060     Cr1076   2.027       .  S
O1061     Cr1076   2.009       .  S
O1061      C1062   1.269       .  A
C1062      O1063   1.261       .  A
C1062      C1093   1.484       .  S
O1063     Cr1077   1.996       .  S
O1064     Cr1077   2.015       .  S
O1064      C1065   1.263       .  A
C1065      C1420   1.495       .  S
O1066     Cr1075   2.001       .  S
O1066      C1074   1.266       .  A
O1067     Cr1075   2.021       .  S
O1067      C1068   1.264       .  A
C1068      O1069   1.264       .  A
C1068      C1134   1.503       .  S
O1069     Cr1076   2.023       .  S
O1070     Cr1076   1.989       .  S
O1070      C1071   1.266       .  A
C1071      O1072   1.272       .  A
C1071      C1115   1.499       .  S
O1072     Cr1077   2.033       .  S
O1073     Cr1077   2.031       .  S
O1073      C1074   1.270       .  A
Cr1075     O1078   1.789       .  S
Cr1076     O1078   1.787       .  S
Cr1077     O1078   1.797       .  S
O1079     Cr1097   2.018       .  S
O1079      C1087   1.265       .  A
O1080     Cr1097   2.005       .  S
O1080      C1081   1.266       .  A
C1081      O1082   1.266       .  A
O1082     Cr1098   2.016       .  S
O1083     Cr1098   2.037       .  S
O1083      C1084   1.272       .  A
C1084      O1085   1.262       .  A
C1084      C1106   1.503       .  S
O1085     Cr1099   1.990       .  S
O1086     Cr1099   2.021       .  S
O1086      C1087   1.265       .  A
O1088     Cr1097   2.014       .  S
O1088      C1096   1.269       .  A
O1089     Cr1097   2.022       .  S
O1089      C1090   1.266       .  A
C1090      O1091   1.266       .  A
C1090      C1571   1.496       .  S
O1091     Cr1098   2.015       .  S
O1092     Cr1098   1.999       .  S
O1092      C1093   1.263       .  A
C1093      O1094   1.270       .  A
O1094     Cr1099   2.007       .  S
O1095     Cr1099   2.027       .  S
O1095      C1096   1.268       .  A
C1096      C1433   1.501       .  S
Cr1097     O1100   1.795       .  S
Cr1098     O1100   1.806       .  S
Cr1099     O1100   1.793       .  S
O1101     Cr1119   2.006       .  S
O1101      C1109   1.268       .  A
O1102     Cr1119   2.028       .  S
O1102      C1103   1.265       .  A
C1103      O1104   1.265       .  A
O1104     Cr1120   2.016       .  S
O1105     Cr1120   2.011       .  S
O1105      C1106   1.271       .  A
C1106      O1107   1.270       .  A
O1107     Cr1121   2.024       .  S
O1108     Cr1121   2.036       .  S
O1108      C1109   1.270       .  A
O1110     Cr1119   2.027       .  S
O1110      C1118   1.267       .  A
O1111     Cr1119   2.002       .  S
O1111      C1112   1.267       .  A
C1112      O1113   1.271       .  A
O1113     Cr1120   2.031       .  S
O1114     Cr1120   2.025       .  S
O1114      C1115   1.269       .  A
C1115      O1116   1.265       .  A
O1116     Cr1121   1.998       .  S
O1117     Cr1121   2.020       .  S
O1117      C1118   1.264       .  A
C1118      C1184   1.502       .  S
Cr1119     O1122   1.785       .  S
Cr1120     O1122   1.793       .  S
Cr1121     O1122   1.792       .  S
O1123     Cr1141   2.029       .  S
O1123      C1131   1.267       .  A
O1124     Cr1141   1.990       .  S
O1124      C1125   1.266       .  A
C1125      O1126   1.271       .  A
O1126     Cr1142   2.036       .  S
O1127     Cr1142   2.028       .  S
O1127      C1128   1.271       .  A
C1128      O1129   1.265       .  A
C1128      C1150   1.498       .  S
O1129     Cr1143   1.991       .  S
O1130     Cr1143   2.023       .  S
O1130      C1131   1.263       .  A
O1132     Cr1141   1.991       .  S
O1132      C1140   1.266       .  A
O1133     Cr1141   2.029       .  S
O1133      C1134   1.266       .  A
C1134      O1135   1.263       .  A
O1135     Cr1142   2.020       .  S
O1136     Cr1142   1.994       .  S
O1136      C1137   1.267       .  A
C1137      O1138   1.270       .  A
C1137      C1181   1.499       .  S
O1138     Cr1143   2.028       .  S
O1139     Cr1143   2.037       .  S
O1139      C1140   1.272       .  A
Cr1141     O1144   1.780       .  S
Cr1142     O1144   1.791       .  S
Cr1143     O1144   1.790       .  S
O1145     Cr1163   1.999       .  S
O1145      C1153   1.267       .  A
O1146     Cr1163   2.023       .  S
O1146      C1147   1.265       .  A
C1147      O1148   1.263       .  A
O1148     Cr1164   2.022       .  S
O1149     Cr1164   1.983       .  S
O1149      C1150   1.264       .  A
C1150      O1151   1.270       .  A
O1151     Cr1165   2.032       .  S
O1152     Cr1165   2.028       .  S
O1152      C1153   1.270       .  A
O1154     Cr1163   2.020       .  S
O1154      C1162   1.264       .  A
O1155     Cr1163   2.002       .  S
O1155      C1156   1.267       .  A
C1156      O1157   1.270       .  A
C1156      C1197   1.491   1_546  S
O1157     Cr1164   2.030       .  S
O1158     Cr1164   2.010       .  S
O1158      C1159   1.269       .  A
C1159      O1160   1.264       .  A
C1159      C1172   1.490       .  S
O1160     Cr1165   2.003       .  S
O1161     Cr1165   2.007       .  S
O1161      C1162   1.262       .  A
C1162      C1455   1.488   1_545  S
Cr1163     O1166   1.791       .  S
Cr1164     O1166   1.787       .  S
Cr1165     O1166   1.801       .  S
O1167     Cr1185   2.001       .  S
O1167      C1175   1.267       .  A
O1168     Cr1185   2.021       .  S
O1168      C1169   1.264       .  A
C1169      O1170   1.264       .  A
C1169      C1228   1.491   1_546  S
O1170     Cr1186   2.012       .  S
O1171     Cr1186   2.001       .  S
O1171      C1172   1.263       .  A
C1172      O1173   1.269       .  A
O1173     Cr1187   2.010       .  S
O1174     Cr1187   2.034       .  S
O1174      C1175   1.272       .  A
C1175      C1486   1.493   1_545  S
O1176     Cr1185   2.017       .  S
O1176      C1184   1.262       .  A
O1177     Cr1185   2.001       .  S
O1177      C1178   1.267       .  A
C1178      O1179   1.269       .  A
O1179     Cr1186   2.024       .  S
O1180     Cr1186   2.032       .  S
O1180      C1181   1.272       .  A
C1181      O1182   1.264       .  A
O1182     Cr1187   1.987       .  S
O1183     Cr1187   2.025       .  S
O1183      C1184   1.264       .  A
Cr1185     O1188   1.793       .  S
Cr1186     O1188   1.801       .  S
Cr1187     O1188   1.789       .  S
O1189     Cr1207   2.022       .  S
O1189      C1197   1.265       .  A
O1190     Cr1207   2.001       .  S
O1190      C1191   1.266       .  A
C1191      O1192   1.268       .  A
O1192     Cr1208   2.022       .  S
O1193     Cr1208   2.014       .  S
O1193      C1194   1.271       .  A
C1194      O1195   1.264       .  A
C1194      C1225   1.493       .  S
O1195     Cr1209   2.005       .  S
O1196     Cr1209   2.010       .  S
O1196      C1197   1.264       .  A
O1198     Cr1207   2.001       .  S
O1198      C1206   1.265       .  A
O1199     Cr1207   2.021       .  S
O1199      C1200   1.265       .  A
C1200      O1201   1.265       .  A
C1200      C1266   1.506       .  S
O1201     Cr1208   2.027       .  S
O1202     Cr1208   1.983       .  S
O1202      C1203   1.263       .  A
C1203      O1204   1.272       .  A
C1203      C1247   1.499       .  S
O1204     Cr1209   2.034       .  S
O1205     Cr1209   2.025       .  S
O1205      C1206   1.268       .  A
C1206      C1536   1.488   1_554  S
Cr1207     O1210   1.794       .  S
Cr1208     O1210   1.791       .  S
Cr1209     O1210   1.803       .  S
O1211     Cr1229   2.020       .  S
O1211      C1219   1.264       .  A
O1212     Cr1229   2.002       .  S
O1212      C1213   1.266       .  A
C1213      O1214   1.269       .  A
O1214     Cr1230   2.028       .  S
O1215     Cr1230   2.030       .  S
O1215      C1216   1.271       .  A
C1216      O1217   1.264       .  A
C1216      C1238   1.498       .  S
O1217     Cr1231   1.987       .  S
O1218     Cr1231   2.025       .  S
O1218      C1219   1.264       .  A
O1220     Cr1229   2.003       .  S
O1220      C1228   1.268       .  A
O1221     Cr1229   2.026       .  S
O1221      C1222   1.266       .  A
C1222      O1223   1.262       .  A
O1223     Cr1230   2.008       .  S
O1224     Cr1230   2.004       .  S
O1224      C1225   1.264       .  A
C1225      O1226   1.270       .  A
O1226     Cr1231   2.013       .  S
O1227     Cr1231   2.029       .  S
O1227      C1228   1.270       .  A
Cr1229     O1232   1.793       .  S
Cr1230     O1232   1.801       .  S
Cr1231     O1232   1.790       .  S
O1233     Cr1251   1.995       .  S
O1233      C1241   1.266       .  A
O1234     Cr1251   2.025       .  S
O1234      C1235   1.266       .  A
C1235      O1236   1.264       .  A
O1236     Cr1252   2.021       .  S
O1237     Cr1252   1.993       .  S
O1237      C1238   1.267       .  A
C1238      O1239   1.270       .  A
O1239     Cr1253   2.029       .  S
O1240     Cr1253   2.041       .  S
O1240      C1241   1.272       .  A
O1242     Cr1251   2.022       .  S
O1242      C1250   1.265       .  A
O1243     Cr1251   1.995       .  S
O1243      C1244   1.266       .  A
C1244      O1245   1.271       .  A
C1244      C1574   1.487   1_554  S
O1245     Cr1252   2.036       .  S
O1246     Cr1252   2.024       .  S
O1246      C1247   1.269       .  A
C1247      O1248   1.268       .  A
O1248     Cr1253   1.999       .  S
O1249     Cr1253   2.025       .  S
O1249      C1250   1.265       .  A
C1250      C1316   1.503       .  S
Cr1251     O1254   1.780       .  S
Cr1252     O1254   1.790       .  S
Cr1253     O1254   1.790       .  S
O1255     Cr1273   2.027       .  S
O1255      C1263   1.265       .  A
O1256     Cr1273   1.999       .  S
O1256      C1257   1.268       .  A
C1257      O1258   1.270       .  A
O1258     Cr1274   2.033       .  S
O1259     Cr1274   2.032       .  S
O1259      C1260   1.272       .  A
C1260      O1261   1.267       .  A
C1260      C1282   1.504       .  S
O1261     Cr1275   2.000       .  S
O1262     Cr1275   2.015       .  S
O1262      C1263   1.265       .  A
O1264     Cr1273   1.997       .  S
O1264      C1272   1.267       .  A
O1265     Cr1273   2.026       .  S
O1265      C1266   1.266       .  A
C1266      O1267   1.265       .  A
O1267     Cr1274   2.028       .  S
O1268     Cr1274   1.994       .  S
O1268      C1269   1.265       .  A
C1269      O1270   1.268       .  A
C1269      C1313   1.495       .  S
O1270     Cr1275   2.021       .  S
O1271     Cr1275   2.023       .  S
O1271      C1272   1.268       .  A
C1272      C1338   1.480       .  S
Cr1273     O1276   1.784       .  S
Cr1274     O1276   1.793       .  S
Cr1275     O1276   1.793       .  S
O1277     Cr1295   1.998       .  S
O1277      C1285   1.266       .  A
O1278     Cr1295   2.013       .  S
O1278      C1279   1.262       .  A
C1279      O1280   1.263       .  A
O1280     Cr1296   2.020       .  S
O1281     Cr1296   1.992       .  S
O1281      C1282   1.266       .  A
C1282      O1283   1.271       .  A
O1283     Cr1297   2.033       .  S
O1284     Cr1297   2.024       .  S
O1284      C1285   1.269       .  A
O1286     Cr1295   2.014       .  S
O1286      C1294   1.262       .  A
O1287     Cr1295   2.005       .  S
O1287      C1288   1.268       .  A
C1288      O1289   1.272       .  A
O1289     Cr1296   2.035       .  S
O1290     Cr1296   2.015       .  S
O1290      C1291   1.272       .  A
C1291      O1292   1.263       .  A
C1291      C1304   1.492       .  S
O1292     Cr1297   2.000       .  S
O1293     Cr1297   2.007       .  S
O1293      C1294   1.262       .  A
Cr1295     O1298   1.795       .  S
Cr1296     O1298   1.788       .  S
Cr1297     O1298   1.800       .  S
O1299     Cr1317   2.005       .  S
O1299      C1307   1.267       .  A
O1300     Cr1317   2.024       .  S
O1300      C1301   1.266       .  A
C1301      O1302   1.264       .  A
O1302     Cr1318   2.008       .  S
O1303     Cr1318   2.006       .  S
O1303      C1304   1.264       .  A
C1304      O1305   1.271       .  A
O1305     Cr1319   2.013       .  S
O1306     Cr1319   2.029       .  S
O1306      C1307   1.270       .  A
O1308     Cr1317   2.018       .  S
O1308      C1316   1.264       .  A
O1309     Cr1317   2.004       .  S
O1309      C1310   1.266       .  A
C1310      O1311   1.267       .  A
C1310      C1376   1.486       .  S
O1311     Cr1318   2.021       .  S
O1312     Cr1318   2.028       .  S
O1312      C1313   1.270       .  A
C1313      O1314   1.263       .  A
O1314     Cr1319   1.984       .  S
O1315     Cr1319   2.026       .  S
O1315      C1316   1.264       .  A
Cr1317     O1320   1.794       .  S
Cr1318     O1320   1.801       .  S
Cr1319     O1320   1.789       .  S
O1321     Cr1339   2.028       .  S
O1321      C1329   1.265       .  A
O1322     Cr1339   2.004       .  S
O1322      C1323   1.268       .  A
C1323      O1324   1.272       .  A
O1324     Cr1340   2.043       .  S
O1325     Cr1340   2.031       .  S
O1325      C1326   1.277       .  A
C1326      O1327   1.262       .  A
C1326      C1357   1.499       .  S
O1327     Cr1341   1.996       .  S
O1328     Cr1341   2.014       .  S
O1328      C1329   1.264       .  A
O1330     Cr1339   1.998       .  S
O1330      C1338   1.266       .  A
O1331     Cr1339   2.023       .  S
O1331      C1332   1.265       .  A
C1332      O1333   1.266       .  A
C1332      C1398   1.508       .  S
O1333     Cr1340   2.032       .  S
O1334     Cr1340   1.986       .  S
O1334      C1335   1.262       .  A
C1335      O1336   1.272       .  A
C1335      C1379   1.498       .  S
O1336     Cr1341   2.031       .  S
O1337     Cr1341   2.019       .  S
O1337      C1338   1.267       .  A
Cr1339     O1342   1.791       .  S
Cr1340     O1342   1.793       .  S
Cr1341     O1342   1.804       .  S
O1343     Cr1361   2.008       .  S
O1343      C1351   1.262       .  A
O1344     Cr1361   2.010       .  S
O1344      C1345   1.266       .  A
C1345      O1346   1.263       .  A
O1346     Cr1362   2.018       .  S
O1347     Cr1362   2.027       .  S
O1347      C1348   1.273       .  A
C1348      O1349   1.261       .  A
C1348      C1370   1.490       .  S
O1349     Cr1363   1.976       .  S
O1350     Cr1363   2.034       .  S
O1350      C1351   1.267       .  A
O1352     Cr1361   2.009       .  S
O1352      C1360   1.269       .  A
O1353     Cr1361   2.016       .  S
O1353      C1354   1.265       .  A
C1354      O1355   1.264       .  A
O1355     Cr1362   2.003       .  S
O1356     Cr1362   2.001       .  S
O1356      C1357   1.260       .  A
C1357      O1358   1.272       .  A
O1358     Cr1363   2.025       .  S
O1359     Cr1363   2.017       .  S
O1359      C1360   1.267       .  A
Cr1361     O1364   1.797       .  S
Cr1362     O1364   1.807       .  S
Cr1363     O1364   1.792       .  S
O1365     Cr1383   1.988       .  S
O1365      C1373   1.264       .  A
O1366     Cr1383   2.022       .  S
O1366      C1367   1.266       .  A
C1367      O1368   1.263       .  A
O1368     Cr1384   2.020       .  S
O1369     Cr1384   1.993       .  S
O1369      C1370   1.267       .  A
C1370      O1371   1.263       .  A
O1371     Cr1385   2.016       .  S
O1372     Cr1385   2.022       .  S
O1372      C1373   1.270       .  A
O1374     Cr1383   2.026       .  S
O1374      C1382   1.266       .  A
O1375     Cr1383   1.992       .  S
O1375      C1376   1.265       .  A
C1376      O1377   1.271       .  A
O1377     Cr1384   2.038       .  S
O1378     Cr1384   2.028       .  S
O1378      C1379   1.270       .  A
C1379      O1380   1.269       .  A
O1380     Cr1385   1.995       .  S
O1381     Cr1385   2.024       .  S
O1381      C1382   1.264       .  A
C1382      C1448   1.506       .  S
Cr1383     O1386   1.781       .  S
Cr1384     O1386   1.789       .  S
Cr1385     O1386   1.788       .  S
O1387     Cr1405   2.021       .  S
O1387      C1395   1.266       .  A
O1388     Cr1405   1.997       .  S
O1388      C1389   1.265       .  A
C1389      O1390   1.269       .  A
O1390     Cr1406   2.026       .  S
O1391     Cr1406   2.011       .  S
O1391      C1392   1.270       .  A
C1392      O1393   1.260       .  A
C1392      C1414   1.480       .  S
O1393     Cr1407   1.990       .  S
O1394     Cr1407   2.014       .  S
O1394      C1395   1.262       .  A
O1396     Cr1405   1.997       .  S
O1396      C1404   1.264       .  A
O1397     Cr1405   2.023       .  S
O1397      C1398   1.266       .  A
C1398      O1399   1.266       .  A
O1399     Cr1406   2.029       .  S
O1400     Cr1406   1.987       .  S
O1400      C1401   1.265       .  A
C1401      O1402   1.272       .  A
C1401      C1445   1.497       .  S
O1402     Cr1407   2.032       .  S
O1403     Cr1407   2.026       .  S
O1403      C1404   1.268       .  A
C1404      C1470   1.484       .  S
Cr1405     O1408   1.785       .  S
Cr1406     O1408   1.783       .  S
Cr1407     O1408   1.795       .  S
O1409     Cr1427   2.007       .  S
O1409      C1417   1.262       .  A
O1410     Cr1427   2.018       .  S
O1410      C1411   1.269       .  A
C1411      O1412   1.267       .  A
O1412     Cr1428   2.025       .  S
O1413     Cr1428   2.008       .  S
O1413      C1414   1.270       .  A
C1414      O1415   1.261       .  A
O1415     Cr1429   1.991       .  S
O1416     Cr1429   2.007       .  S
O1416      C1417   1.264       .  A
O1418     Cr1427   2.014       .  S
O1418      C1426   1.269       .  A
O1419     Cr1427   2.012       .  S
O1419      C1420   1.263       .  A
C1420      O1421   1.265       .  A
O1421     Cr1428   2.019       .  S
O1422     Cr1428   1.985       .  S
O1422      C1423   1.259       .  A
C1423      O1424   1.274       .  A
C1423      C1436   1.499       .  S
O1424     Cr1429   2.034       .  S
O1425     Cr1429   2.018       .  S
O1425      C1426   1.265       .  A
Cr1427     O1430   1.794       .  S
Cr1428     O1430   1.793       .  S
Cr1429     O1430   1.804       .  S
O1431     Cr1449   1.999       .  S
O1431      C1439   1.268       .  A
O1432     Cr1449   2.033       .  S
O1432      C1433   1.267       .  A
C1433      O1434   1.266       .  A
O1434     Cr1450   2.016       .  S
O1435     Cr1450   2.007       .  S
O1435      C1436   1.271       .  A
C1436      O1437   1.264       .  A
O1437     Cr1451   2.017       .  S
O1438     Cr1451   2.027       .  S
O1438      C1439   1.271       .  A
O1440     Cr1449   2.024       .  S
O1440      C1448   1.264       .  A
O1441     Cr1449   1.999       .  S
O1441      C1442   1.266       .  A
C1442      O1443   1.269       .  A
C1442      C1508   1.483       .  S
O1443     Cr1450   2.027       .  S
O1444     Cr1450   2.022       .  S
O1444      C1445   1.269       .  A
C1445      O1446   1.267       .  A
O1446     Cr1451   2.000       .  S
O1447     Cr1451   2.027       .  S
O1447      C1448   1.265       .  A
Cr1449     O1452   1.789       .  S
Cr1450     O1452   1.794       .  S
Cr1451     O1452   1.792       .  S
O1453     Cr1471   2.019       .  S
O1453      C1461   1.266       .  A
O1454     Cr1471   1.996       .  S
O1454      C1455   1.266       .  A
C1455      O1456   1.270       .  A
O1456     Cr1472   2.028       .  S
O1457     Cr1472   2.013       .  S
O1457      C1458   1.270       .  A
C1458      O1459   1.259       .  A
C1458      C1489   1.486       .  S
O1459     Cr1473   1.990       .  S
O1460     Cr1473   2.017       .  S
O1460      C1461   1.263       .  A
O1462     Cr1471   1.994       .  S
O1462      C1470   1.264       .  A
O1463     Cr1471   2.020       .  S
O1463      C1464   1.264       .  A
C1464      O1465   1.264       .  A
C1464      C1530   1.506       .  S
O1465     Cr1472   2.027       .  S
O1466     Cr1472   1.983       .  S
O1466      C1467   1.264       .  A
C1467      O1468   1.275       .  A
C1467      C1511   1.499       .  S
O1468     Cr1473   2.036       .  S
O1469     Cr1473   2.030       .  S
O1469      C1470   1.269       .  A
Cr1471     O1474   1.790       .  S
Cr1472     O1474   1.786       .  S
Cr1473     O1474   1.801       .  S
O1475     Cr1493   2.016       .  S
O1475      C1483   1.262       .  A
O1476     Cr1493   2.000       .  S
O1476      C1477   1.266       .  A
C1477      O1478   1.269       .  A
O1478     Cr1494   2.023       .  S
O1479     Cr1494   2.038       .  S
O1479      C1480   1.272       .  A
C1480      O1481   1.261       .  A
C1480      C1502   1.500       .  S
O1481     Cr1495   1.978       .  S
O1482     Cr1495   2.025       .  S
O1482      C1483   1.265       .  A
O1484     Cr1493   2.007       .  S
O1484      C1492   1.269       .  A
O1485     Cr1493   2.019       .  S
O1485      C1486   1.263       .  A
C1486      O1487   1.263       .  A
O1487     Cr1494   2.013       .  S
O1488     Cr1494   1.996       .  S
O1488      C1489   1.262       .  A
C1489      O1490   1.271       .  A
O1490     Cr1495   2.011       .  S
O1491     Cr1495   2.027       .  S
O1491      C1492   1.269       .  A
Cr1493     O1496   1.793       .  S
Cr1494     O1496   1.804       .  S
Cr1495     O1496   1.789       .  S
O1497     Cr1515   2.002       .  S
O1497      C1505   1.269       .  A
O1498     Cr1515   2.037       .  S
O1498      C1499   1.266       .  A
C1499      O1500   1.265       .  A
O1500     Cr1516   2.020       .  S
O1501     Cr1516   2.001       .  S
O1501      C1502   1.269       .  A
C1502      O1503   1.269       .  A
O1503     Cr1517   2.023       .  S
O1504     Cr1517   2.036       .  S
O1504      C1505   1.272       .  A
O1506     Cr1515   2.033       .  S
O1506      C1514   1.267       .  A
O1507     Cr1515   1.996       .  S
O1507      C1508   1.267       .  A
C1508      O1509   1.271       .  A
O1509     Cr1516   2.029       .  S
O1510     Cr1516   2.024       .  S
O1510      C1511   1.268       .  A
C1511      O1512   1.267       .  A
O1512     Cr1517   1.999       .  S
O1513     Cr1517   2.023       .  S
O1513      C1514   1.264       .  A
C1514      C1580   1.507       .  S
Cr1515     O1518   1.782       .  S
Cr1516     O1518   1.791       .  S
Cr1517     O1518   1.793       .  S
O1519     Cr1537   2.029       .  S
O1519      C1527   1.267       .  A
O1520     Cr1537   1.993       .  S
O1520      C1521   1.266       .  A
C1521      O1522   1.269       .  A
O1522     Cr1538   2.028       .  S
O1523     Cr1538   2.028       .  S
O1523      C1524   1.271       .  A
C1524      O1525   1.267       .  A
C1524      C1546   1.500       .  S
O1525     Cr1539   1.998       .  S
O1526     Cr1539   2.017       .  S
O1526      C1527   1.263       .  A
O1528     Cr1537   1.997       .  S
O1528      C1536   1.266       .  A
O1529     Cr1537   2.027       .  S
O1529      C1530   1.266       .  A
C1530      O1531   1.266       .  A
O1531     Cr1538   2.025       .  S
O1532     Cr1538   1.993       .  S
O1532      C1533   1.266       .  A
C1533      O1534   1.270       .  A
C1533      C1577   1.496       .  S
O1534     Cr1539   2.024       .  S
O1535     Cr1539   2.036       .  S
O1535      C1536   1.271       .  A
Cr1537     O1540   1.780       .  S
Cr1538     O1540   1.789       .  S
Cr1539     O1540   1.790       .  S
O1541     Cr1559   2.001       .  S
O1541      C1549   1.266       .  A
O1542     Cr1559   2.019       .  S
O1542      C1543   1.265       .  A
C1543      O1544   1.263       .  A
O1544     Cr1560   2.016       .  S
O1545     Cr1560   1.992       .  S
O1545      C1546   1.266       .  A
C1546      O1547   1.271       .  A
O1547     Cr1561   2.029       .  S
O1548     Cr1561   2.027       .  S
O1548      C1549   1.268       .  A
O1550     Cr1559   2.019       .  S
O1550      C1558   1.264       .  A
O1551     Cr1559   2.005       .  S
O1551      C1552   1.267       .  A
C1552      O1553   1.270       .  A
O1553     Cr1560   2.030       .  S
O1554     Cr1560   2.010       .  S
O1554      C1555   1.269       .  A
C1555      O1556   1.263       .  A
C1555      C1568   1.489       .  S
O1556     Cr1561   2.002       .  S
O1557     Cr1561   2.006       .  S
O1557      C1558   1.263       .  A
Cr1559     O1562   1.792       .  S
Cr1560     O1562   1.789       .  S
Cr1561     O1562   1.800       .  S
O1563     Cr1581   2.007       .  S
O1563      C1571   1.268       .  A
O1564     Cr1581   2.019       .  S
O1564      C1565   1.264       .  A
C1565      O1566   1.264       .  A
O1566     Cr1582   2.011       .  S
O1567     Cr1582   2.006       .  S
O1567      C1568   1.263       .  A
C1568      O1569   1.269       .  A
O1569     Cr1583   2.009       .  S
O1570     Cr1583   2.033       .  S
O1570      C1571   1.271       .  A
O1572     Cr1581   2.022       .  S
O1572      C1580   1.264       .  A
O1573     Cr1581   2.004       .  S
O1573      C1574   1.267       .  A
C1574      O1575   1.269   1_556  A
O1575     Cr1582   2.024   1_554  S
O1576     Cr1582   2.030       .  S
O1576      C1577   1.271       .  A
C1577      O1578   1.264       .  A
O1578     Cr1583   1.986       .  S
O1579     Cr1583   2.026       .  S
O1579      C1580   1.265       .  A
Cr1581     O1584   1.792       .  S
Cr1582     O1584   1.802       .  S
Cr1583     O1584   1.788       .  S
