geometry optimzed in LAMMPS
_audit_creation_date              2020-11-30 
_audit_creation_method            'lammps2cif' 
_symmetry_space_group_name_H-M    'P1' 
_symmetry_Int_Tables_number       1 
_symmetry_cell_setting            triclinic 
loop_ 
_symmetry_equiv_pos_as_xyz 
  x,y,z 
_cell_length_a                    30.7409961 
_cell_length_b                    30.969117374685997 
_cell_length_c                    44.08951611177199 
_cell_angle_alpha                 90.0657734312355 
_cell_angle_beta                  90.23190793044618 
_cell_angle_gamma                 120.10421424332766 
loop_ 
_atom_site_label 
_atom_site_type_symbol 
_atom_site_fract_x 
_atom_site_fract_y 
_atom_site_fract_z 
_atom_site_charge 
O1          O  0.19421131  0.85887676  0.04400761    -0.84200
O2          O  0.11721645  0.77399535  0.06409126    -0.81300
C3          C  0.09241452  0.72877863  0.07098985     0.99200
O4          O  0.11167063  0.71036569  0.08864548    -0.81300
O5          O  0.18518835  0.71036692  0.05481847    -0.84000
C6          C  0.22604381  0.71781767  0.04417097     1.03800
O7          O  0.26484717  0.76062483  0.04735551    -0.76700
O8          O  0.23444977  0.82399011  0.02410393    -0.76900
C9          C  0.20484224  0.84068233  0.02127223     1.03700
O10         O  0.23017957  0.88107369  0.10721332    -0.84200
O11         O  0.14980184  0.80001882  0.12748926    -0.81300
C12         C  0.16775603  0.78182590  0.14622216     0.99200
O13         O  0.18724988  0.75693330  0.13707615    -0.81300
O14         O  0.25624549  0.74486313  0.10508856    -0.83900
C15         C  0.29892329  0.78457000  0.10783533     1.03700
O16         O  0.30441289  0.82553045  0.09878989    -0.76800
O17         O  0.28742535  0.89647686  0.07314354    -0.76900
C18         C  0.27215042  0.91007968  0.09600868     1.03700
Cr19       Cr  0.17533802  0.82634339  0.08541022     1.93700
Cr20       Cr  0.18648268  0.73479788  0.09558655     1.93200
Cr21       Cr  0.26861386  0.82514783  0.06197663     1.39100
O22         O  0.21015769  0.79561171  0.08134655    -1.22000
O23         O  0.20822756  0.84806459  0.29078097    -0.84200
O24         O  0.12236341  0.77110880  0.31090498    -0.81300
C25         C  0.09401378  0.72760130  0.32030544     0.99200
O26         O  0.10688542  0.71140780  0.34318211    -0.81300
O27         O  0.17977397  0.69345525  0.32081209    -0.84000
C28         C  0.22150702  0.69745228  0.31457425     1.03800
O29         O  0.26086608  0.74004436  0.31612914    -0.76700
O30         O  0.24316025  0.80285604  0.28106134    -0.76900
C31         C  0.21870103  0.82313075  0.27222280     1.03700
O32         O  0.23496831  0.88004630  0.35493439    -0.84200
O33         O  0.14574424  0.80736013  0.37380376    -0.81300
C34         C  0.15735319  0.79085638  0.39695564     0.99200
O35         O  0.17486923  0.76208446  0.39420600    -0.81300
O36         O  0.24278828  0.73563569  0.37350085    -0.83900
C37         C  0.28667721  0.77377512  0.37551773     1.03700
O38         O  0.29576158  0.81386907  0.36302981    -0.76800
O39         O  0.29310682  0.88265681  0.32564338    -0.76900
C40         C  0.27958953  0.90212636  0.34611776     1.03700
Cr41       Cr  0.17982118  0.82419008  0.33289465     1.93700
Cr42       Cr  0.17775325  0.72977976  0.35673034     1.93200
Cr43       Cr  0.26911706  0.80877885  0.32220991     1.39100
O44         O  0.20847005  0.78733599  0.33725317    -1.22000
O45         O  0.65584748  0.80460264  0.11960863    -0.84200
O46         O  0.65824246  0.88513104  0.14284193    -0.81300
C47         C  0.63916931  0.91111213  0.15018387     0.99200
O48         O  0.60433495  0.89487376  0.16980713    -0.81300
O49         O  0.52189496  0.82528486  0.14014163    -0.84000
C50         C  0.48530759  0.78539106  0.13084009     1.03800
O51         O  0.48816184  0.74594205  0.13189734    -0.76700
O52         O  0.57805366  0.77166659  0.10329611    -0.76900
C53         C  0.62457028  0.79732581  0.09845782     1.03700
O54         O  0.64748789  0.76778544  0.18264750    -0.84200
O55         O  0.65780304  0.85204522  0.20542786    -0.81300
C56         C  0.62418302  0.83850414  0.22566068     0.99200
O57         O  0.57891026  0.82173568  0.21848187    -0.81300
O58         O  0.49101711  0.75548992  0.19082026    -0.83900
C59         C  0.48594987  0.71200535  0.19240525     1.03700
O60         O  0.51681008  0.70292894  0.17924259    -0.76800
O61         O  0.59924508  0.71419826  0.14835744    -0.76900
C62         C  0.62741455  0.72473878  0.17162029     1.03700
Cr63       Cr  0.65021329  0.82524507  0.16255381     1.93700
Cr64       Cr  0.55167460  0.82266318  0.17871876     1.93200
Cr65       Cr  0.54868065  0.73785972  0.14168635     1.39100
O66         O  0.58371659  0.79535392  0.16137403    -1.22000
O67         O  0.65339168  0.85641903  0.45569934    -0.84200
O68         O  0.64387637  0.77052167  0.43598652    -0.81300
C69         C  0.62370457  0.72664966  0.42617529     0.99200
O70         O  0.59523987  0.71445337  0.40302267    -0.81300
O71         O  0.51660743  0.70421471  0.43620479    -0.84000
C72         C  0.48162250  0.70924437  0.44676788     1.03800
O73         O  0.48528731  0.75223153  0.44593410    -0.76700
O74         O  0.57558452  0.82270520  0.47194646    -0.76900
C75         C  0.62193063  0.84224887  0.47725313     1.03700
O76         O  0.64768322  0.88291255  0.39244469    -0.84200
O77         O  0.64640086  0.80080207  0.37153942    -0.81300
C78         C  0.61321469  0.79017903  0.35100302     0.99200
O79         O  0.56722127  0.76453875  0.35730236    -0.81300
O80         O  0.47937208  0.73940764  0.38833849    -0.83900
C81         C  0.47491417  0.77798304  0.38762450     1.03700
O82         O  0.51241287  0.81913797  0.39433628    -0.76800
O83         O  0.59622713  0.89286449  0.42193727    -0.76900
C84         C  0.62839341  0.90847531  0.40056258     1.03700
Cr85       Cr  0.64352799  0.82549464  0.41394039     1.93700
Cr86       Cr  0.54239096  0.73469411  0.39699261     1.93200
Cr87       Cr  0.54491718  0.82035344  0.43261787     1.39100
O88         O  0.57720144  0.79389798  0.41465633    -1.22000
O89         O  0.14719262  0.34722670  0.45871803    -0.84200
O90         O  0.23027202  0.35292683  0.48096666    -0.81300
C91         C  0.27566397  0.37300111  0.48843269     0.99200
O92         O  0.29066882  0.41491424  0.00404350    -0.81300
O93         O  0.30150632  0.48618327  0.47112124    -0.84000
C94         C  0.29599383  0.52060789  0.46050246     1.03800
O95         O  0.25263027  0.51616423  0.46152281    -0.76700
O96         O  0.18623431  0.42166524  0.43794084    -0.76900
C97         C  0.16537676  0.37491842  0.43550347     1.03700
O98         O  0.12053783  0.37303261  0.02146533    -0.84200
O99         O  0.19928667  0.36798740  0.04323095    -0.81300
C100        C  0.22121163  0.40467651  0.06138037     0.99200
O101        O  0.24755674  0.44826346  0.05137291    -0.81300
O102        O  0.26337697  0.52938875  0.01817792    -0.83900
C103        C  0.22419334  0.53366168  0.01915891     1.03700
O104        O  0.18274229  0.49837553  0.00992463    -0.76800
O105        O  0.11269929  0.40541938  0.48539236    -0.76900
C106        C  0.09409687  0.38776296  0.00853108     1.03700
Cr107      Cr  0.17367943  0.36710016  0.00073693     1.93700
Cr108      Cr  0.27046268  0.46792531  0.00985091     1.93200
Cr109      Cr  0.18579744  0.45644361  0.47513018     1.39100
O110        O  0.20905492  0.43219357  0.99509998    -1.22000
O111        O  0.16164459  0.36700963  0.20680300    -0.84200
O112        O  0.24347975  0.36761740  0.22666760    -0.81300
C113        C  0.28583528  0.38253312  0.23819838     0.99200
O114        O  0.29727786  0.40659330  0.26313305    -0.81300
O115        O  0.31311897  0.49595546  0.24052731    -0.84000
C116        C  0.30716565  0.53150827  0.23211443     1.03800
O117        O  0.26380485  0.52736581  0.23430588    -0.76700
O118        O  0.19861813  0.44770099  0.19967999    -0.76900
C119        C  0.18281446  0.40445799  0.18936623     1.03700
O120        O  0.12742030  0.35421615  0.26941846    -0.84200
O121        O  0.20438662  0.34713103  0.29001083    -0.81300
C122        C  0.21342668  0.37389768  0.31375667     0.99200
O123        O  0.24108272  0.42047883  0.31235032    -0.81300
O124        O  0.26917181  0.51482738  0.29201312    -0.83900
C125        C  0.22974758  0.51798562  0.29483788     1.03700
O126        O  0.18962259  0.48548588  0.28278884    -0.76800
O127        O  0.12007305  0.41272607  0.24663522    -0.76900
C128        C  0.10201056  0.37451992  0.26368368     1.03700
Cr129      Cr  0.18659613  0.36342329  0.24864686     1.93700
Cr130      Cr  0.27614831  0.45688631  0.27581668     1.93200
Cr131      Cr  0.19426405  0.46549997  0.24155088     1.39100
O132        O  0.21889238  0.42850771  0.25513247    -1.22000
O133        O  0.34582234  0.20469232  0.12457466    -0.84200
O134        O  0.34827408  0.12670325  0.14797523    -0.81300
C135        C  0.36723367  0.10130897  0.15675874     0.99200
O136        O  0.40363821  0.11946172  0.17560994    -0.81300
O137        O  0.48310487  0.18842433  0.14344814    -0.84000
C138        C  0.51963678  0.22838476  0.13441841     1.03800
O139        O  0.51519498  0.26703489  0.13394171    -0.76700
O140        O  0.42226621  0.23726998  0.10634403    -0.76900
C141        C  0.37536703  0.21183057  0.10256578     1.03700
O142        O  0.35783504  0.24314958  0.18738675    -0.84200
O143        O  0.35130377  0.16033344  0.21007323    -0.81300
C144        C  0.38584946  0.17623723  0.23004080     0.99200
O145        O  0.43122094  0.19591006  0.22251175    -0.81300
O146        O  0.51666144  0.26192792  0.19208647    -0.83900
C147        C  0.52041776  0.30489455  0.19168294     1.03700
O148        O  0.48483184  0.30927825  0.18124852    -0.76800
O149        O  0.40116004  0.29471908  0.15129318    -0.76900
C150        C  0.37524234  0.28509843  0.17536694     1.03700
Cr151      Cr  0.35522785  0.18592703  0.16732463     1.93700
Cr152      Cr  0.45601525  0.19277438  0.18246274     1.93200
Cr153      Cr  0.45324315  0.27319407  0.14411500     1.39100
O154        O  0.42131374  0.21702322  0.16485618    -1.22000
O155        O  0.34122764  0.14056457  0.45882500    -0.84200
O156        O  0.34877572  0.22546565  0.43932736    -0.81300
C157        C  0.36751381  0.26996209  0.43115633     0.99200
O158        O  0.40311944  0.28785203  0.41203556    -0.81300
O159        O  0.48097673  0.29545340  0.44612244    -0.84000
C160        C  0.51391858  0.28806197  0.45791078     1.03800
O161        O  0.51029754  0.24543345  0.45527677    -0.76700
O162        O  0.41744288  0.17650350  0.47839405    -0.76900
C163        C  0.37055299  0.15551626  0.48167813     1.03700
O164        O  0.35436959  0.11906628  0.39551414    -0.84200
O165        O  0.35335986  0.20051078  0.37592454    -0.81300
C166        C  0.38855105  0.21454114  0.35676902     0.99200
O167        O  0.43360813  0.24110439  0.36499113    -0.81300
O168        O  0.51769404  0.26097332  0.39710587    -0.83900
C169        C  0.52181819  0.22224819  0.39464602     1.03700
O170        O  0.48665200  0.18089184  0.40344335    -0.76800
O171        O  0.40007727  0.10727212  0.42883032    -0.76900
C172        C  0.37156522  0.09277855  0.40558231     1.03700
Cr173      Cr  0.35404557  0.17364485  0.41764997     1.93700
Cr174      Cr  0.45594309  0.26716336  0.40593534     1.93200
Cr175      Cr  0.45105266  0.17917356  0.44036009     1.39100
O176        O  0.42019361  0.20661269  0.42138039    -1.22000
O177        O  0.79635698  0.16687775  0.03984039    -0.84200
O178        O  0.87865008  0.24668789  0.06113563    -0.81300
C179        C  0.90509612  0.28994463  0.07147836     0.99200
O180        O  0.89155221  0.30245944  0.09567160    -0.81300
O181        O  0.81591141  0.31560226  0.07342206    -0.84000
C182        C  0.77390813  0.31000499  0.06598134     1.03800
O183        O  0.73517273  0.26674830  0.06731991    -0.76700
O184        O  0.75512287  0.20657618  0.03174945    -0.76900
C185        C  0.78189828  0.18948409  0.02205089     1.03700
O186        O  0.77197903  0.13059689  0.10223201    -0.84200
O187        O  0.85759162  0.20658048  0.12366427    -0.81300
C188        C  0.84317281  0.21914952  0.14740032     0.99200
O189        O  0.82310340  0.24588446  0.14558241    -0.81300
O190        O  0.75228432  0.27008898  0.12485329    -0.83900
C191        C  0.70900307  0.23090664  0.12579113     1.03700
O192        O  0.70315648  0.19153786  0.11390230    -0.76800
O193        O  0.70901962  0.12517019  0.07594607    -0.76900
C194        C  0.72723527  0.10565325  0.09346931     1.03700
Cr195      Cr  0.82396867  0.19011106  0.08219963     1.93700
Cr196      Cr  0.81916800  0.27933712  0.10876273     1.93200
Cr197      Cr  0.72979097  0.19871613  0.07305395     1.39100
O198        O  0.79112263  0.22264581  0.08804293    -1.22000
O199        O  0.80620147  0.15268951  0.29244600    -0.84200
O200        O  0.88396736  0.23287214  0.31724332    -0.81300
C201        C  0.90877692  0.27823074  0.32422185     0.99200
O202        O  0.88973592  0.29766469  0.34101384    -0.81300
O203        O  0.82129280  0.30611075  0.30660699    -0.84000
C204        C  0.78139933  0.30095466  0.29555372     1.03800
O205        O  0.74230839  0.25793467  0.29623777    -0.76700
O206        O  0.77270626  0.19407526  0.27198586    -0.76900
C207        C  0.79899243  0.17351406  0.26956952     1.03700
O208        O  0.76255570  0.12639797  0.35467675    -0.84200
O209        O  0.84469534  0.20336847  0.37857496    -0.81300
C210        C  0.82877468  0.22382578  0.39693146     1.00400
O211        O  0.81206549  0.25090895  0.38733121    -0.81300
O212        O  0.74735583  0.26805632  0.35491270    -0.83900
C213        C  0.70423476  0.22884593  0.35627110     1.03700
O214        O  0.69648859  0.18856466  0.34433913    -0.76800
O215        O  0.71249115  0.11752006  0.31709773    -0.76900
C216        C  0.72152923  0.10079535  0.34122159     1.03700
Cr217      Cr  0.82197999  0.18121475  0.33537184     1.93700
Cr218      Cr  0.81614834  0.27632372  0.34642516     1.93200
Cr219      Cr  0.73514816  0.19087751  0.30862609     1.39100
O220        O  0.79131984  0.21619894  0.33042094    -1.22000
O221        O  0.83627984  0.64731505  0.45664581    -0.84200
O222        O  0.75283448  0.64311004  0.47770468    -0.81300
C223        C  0.71035357  0.62653961  0.48931190     0.99200
O224        O  0.70118642  0.60364741  0.01066006    -0.81300
O225        O  0.68673600  0.51317687  0.48902789    -0.84000
C226        C  0.69311842  0.47772611  0.48117138     1.03800
O227        O  0.73740183  0.48404539  0.48138404    -0.76700
O228        O  0.79807760  0.56715522  0.44717530    -0.76900
C229        C  0.81467305  0.61118013  0.43808818     1.03700
O230        O  0.87134378  0.65309047  0.01782313    -0.84200
O231        O  0.79436484  0.66082038  0.03859530    -0.81300
C232        C  0.78512443  0.63279260  0.06158167     0.99200
O233        O  0.75682517  0.58637006  0.05914464    -0.81300
O234        O  0.72779825  0.49288540  0.03660703    -0.83900
C235        C  0.76686366  0.48892475  0.03901453     1.03700
O236        O  0.80703522  0.52109084  0.02696458    -0.76800
O237        O  0.87915882  0.60177857  0.49360875    -0.76900
C238        C  0.89636321  0.63281272  0.01075103     1.03700
Cr239      Cr  0.81089583  0.64785148  0.49892966     1.93700
Cr240      Cr  0.72165805  0.55216648  0.02182566     1.93200
Cr241      Cr  0.80561330  0.54730834  0.48830590     1.39100
O242        O  0.78016837  0.58237074  0.50405468    -1.22000
O243        O  0.84990268  0.66397525  0.20676723    -0.84200
O244        O  0.76269801  0.65146947  0.22708275    -0.81300
C245        C  0.71736760  0.62802758  0.23471228     0.99200
O246        O  0.70318242  0.59517562  0.25529682    -0.81300
O247        O  0.69940563  0.52185189  0.22022419    -0.84000
C248        C  0.70701411  0.48943710  0.20851655     1.03800
O249        O  0.75070820  0.49475966  0.20996148    -0.76700
O250        O  0.81522604  0.58889733  0.18661105    -0.76900
C251        C  0.83495266  0.63542599  0.18365883     1.03700
O252        O  0.87520203  0.65109034  0.26964822    -0.84200
O253        O  0.79207142  0.64796356  0.29114820    -0.81300
C254        C  0.77586409  0.61254480  0.31031020     0.99200
O255        O  0.75323859  0.56785761  0.30145237    -0.81300
O256        O  0.73754409  0.48601025  0.26838431    -0.83900
C257        C  0.77760176  0.48349184  0.26982052     1.03700
O258        O  0.81818154  0.51929450  0.26014207    -0.76800
O259        O  0.88804332  0.60843693  0.23473031    -0.76900
C260        C  0.90240175  0.63573527  0.25836326     1.03700
Cr261      Cr  0.81786029  0.64914221  0.24847753     1.93700
Cr262      Cr  0.72759199  0.54560493  0.26043561     1.93200
Cr263      Cr  0.81635381  0.55539171  0.22408253     1.39100
O264        O  0.78760922  0.58352955  0.24461348    -1.22000
C265        C  0.83955092  0.65713694  0.38747748     0.24700
C266        C  0.80438749  0.61838010  0.40603101    -0.23400
C267        C  0.75737026  0.58376312  0.39351629     0.19600
C268        C  0.74668494  0.58572163  0.36299369     0.24600
C269        C  0.78320955  0.62133132  0.34360107    -0.23300
C270        C  0.82925257  0.65827205  0.35629896     0.19600
F271        F  0.86552726  0.69305839  0.33823801    -0.13300
F272        F  0.88490927  0.69168726  0.39895114    -0.15700
F273        F  0.70089840  0.55100753  0.35202358    -0.15700
F274        F  0.72142739  0.54715110  0.41091586    -0.13300
C275        C  0.80708312  0.67365899  0.14364736     0.24700
C276        C  0.83833044  0.65466435  0.15252618    -0.23400
C277        C  0.86039678  0.64000983  0.12999171     0.19600
C278        C  0.84709324  0.63889169  0.09954577     0.24600
C279        C  0.81094994  0.65183232  0.09100753    -0.23300
C280        C  0.79233451  0.67099583  0.11309217     0.19600
F281        F  0.75625296  0.68221269  0.10564909    -0.13300
F282        F  0.78677536  0.68986256  0.16489831    -0.15700
F283        F  0.86534240  0.61971307  0.07879737    -0.15700
F284        F  0.89121530  0.62217489  0.13781671    -0.13300
C285        C  0.73218398  0.38982329  0.27793296     0.24700
C286        C  0.77679857  0.43670484  0.27896122    -0.23400
C287        C  0.82243482  0.43792027  0.28483983     0.19600
C288        C  0.82388614  0.39392534  0.28865505     0.24600
C289        C  0.77958889  0.34676713  0.28699748    -0.23300
C290        C  0.73361419  0.34539387  0.28162463     0.19600
F291        F  0.68976287  0.30116526  0.28048014    -0.13300
F292        F  0.68712414  0.38669560  0.27278735    -0.15700
F293        F  0.86924341  0.39806032  0.29446414    -0.15700
F294        F  0.86629500  0.48206150  0.28704945    -0.13300
C295        C  0.81356996  0.40290474  0.06248273     0.24700
C296        C  0.77020222  0.35530428  0.05965410    -0.23400
C297        C  0.72370120  0.35257412  0.05372053     0.19600
C298        C  0.72134356  0.39631593  0.04920385     0.24600
C299        C  0.76527957  0.44355221  0.05110233    -0.23300
C300        C  0.81091470  0.44608422  0.05874975     0.19600
F301        F  0.85398013  0.49084119  0.06157149    -0.13300
F302        F  0.85935459  0.40834208  0.06874976    -0.15700
F303        F  0.67663346  0.39221415  0.04141158    -0.15700
F304        F  0.68061256  0.30774028  0.05181662    -0.13300
C305        C  0.82594777  0.25145695  0.44934292     0.24700
C306        C  0.82712018  0.21571662  0.43019020    -0.23400
C307        C  0.81821418  0.17013010  0.44285688     0.19600
C308        C  0.80520693  0.15960928  0.47371073     0.24600
C309        C  0.79999747  0.19412029  0.49189230    -0.23300
C310        C  0.81212817  0.24065908  0.47951510     0.19600
F311        F  0.81052030  0.27625706  0.49673962    -0.13300
F312        F  0.83638574  0.29673683  0.43856929    -0.15700
F313        F  0.79498133  0.11488503  0.48524949    -0.15700
F314        F  0.81887444  0.13464893  0.42508592    -0.13300
C315        C  0.87431335  0.23679998  0.20062267     0.24700
C316        C  0.84692535  0.20147145  0.17797776    -0.23400
C317        C  0.81146459  0.15242446  0.18674421     0.19600
C318        C  0.79952456  0.14069764  0.21754716     0.24600
C319        C  0.82327046  0.17773309  0.23991206    -0.23300
C320        C  0.86270748  0.22501231  0.23128679     0.19600
F321        F  0.88629055  0.26162067  0.25236487    -0.13300
F322        F  0.90877709  0.28430810  0.19287722    -0.15700
F323        F  0.76116806  0.09489635  0.22518187    -0.15700
F324        F  0.78399000  0.11756630  0.16539707    -0.13300
C325        C  0.60789606  0.26830026  0.37077212     0.24700
C326        C  0.56952892  0.22542345  0.38499137    -0.23400
C327        C  0.57840313  0.18596543  0.39200861     0.19600
C328        C  0.62330246  0.18844251  0.38390275     0.24600
C329        C  0.66089306  0.23050105  0.36900465    -0.23300
C330        C  0.65330182  0.27085475  0.36293166     0.19600
F331        F  0.68874749  0.31168931  0.34805469    -0.13300
F332        F  0.60116988  0.30725385  0.36381437    -0.15700
F333        F  0.63002011  0.14937541  0.39061349    -0.15700
F334        F  0.54398005  0.14485343  0.40719298    -0.13300
C335        C  0.60794145  0.33808913  0.46522208     0.24700
C336        C  0.55993115  0.33231051  0.46977255    -0.23400
C337        C  0.55664913  0.37377873  0.47947229     0.19600
C338        C  0.59958118  0.42060041  0.48235017     0.24600
C339        C  0.64777290  0.42754128  0.47621118    -0.23300
C340        C  0.65149032  0.38521028  0.46858820     0.19600
F341        F  0.69705063  0.38935907  0.46388345    -0.13300
F342        F  0.61270077  0.29892146  0.45577877    -0.15700
F343        F  0.59332027  0.45917366  0.49114920    -0.15700
F344        F  0.51120334  0.36943927  0.48513316    -0.13300
C345        C  0.61510436  0.27650294  0.13147026     0.24700
C346        C  0.56915103  0.23074593  0.13115522    -0.23400
C347        C  0.57096732  0.18618981  0.13310072     0.19600
C348        C  0.61667880  0.18714679  0.13504306     0.24600
C349        C  0.66266978  0.23245973  0.13358716    -0.23300
C350        C  0.66135493  0.27733685  0.13244019     0.19600
F351        F  0.70467639  0.32199588  0.13114689    -0.13300
F352        F  0.61550135  0.32052125  0.13107678    -0.15700
F353        F  0.61565015  0.14290170  0.13731176    -0.15700
F354        F  0.52822324  0.14089274  0.13320082    -0.13300
C355        C  0.61745939  0.44220982  0.19308064     0.24700
C356        C  0.66226233  0.44205798  0.19917509    -0.23400
C357        C  0.66019124  0.39597544  0.20339501     0.19600
C358        C  0.61384475  0.35114241  0.20277486     0.24600
C359        C  0.56879682  0.35159457  0.19755810    -0.23300
C360        C  0.57151581  0.39802668  0.19282708     0.19600
F361        F  0.52962527  0.40129650  0.18774617    -0.13300
F362        F  0.61780114  0.48573179  0.18826564    -0.15700
F363        F  0.61321937  0.30749982  0.20734427    -0.15700
F364        F  0.70266435  0.39434487  0.20942999    -0.13300
C365        C  0.40639824  0.16589090  0.28277123     0.24700
C366        C  0.37521173  0.17362469  0.26285922    -0.23400
C367        C  0.34261637  0.18899251  0.27480459     0.19600
C368        C  0.34442517  0.20028018  0.30593208     0.24600
C369        C  0.37908613  0.19659544  0.32508859    -0.23300
C370        C  0.40879057  0.17783804  0.31334158     0.19600
F371        F  0.44129112  0.17203676  0.33154199    -0.13300
F372        F  0.43694563  0.14934042  0.27222760    -0.15700
F373        F  0.31548737  0.21846385  0.31675866    -0.15700
F374        F  0.31230225  0.19708072  0.25606842    -0.13300
C375        C  0.36977233  0.15207649  0.06354954     0.24700
C376        C  0.35685210  0.18768472  0.07271467    -0.23400
C377        C  0.33687095  0.20650661  0.05121502     0.19600
C378        C  0.33380768  0.19282031  0.02047813     0.24600
C379        C  0.35105281  0.16049786  0.01100352    -0.23300
C380        C  0.36712038  0.13880815  0.03301669     0.19600
F381        F  0.38503922  0.10850963  0.02450582    -0.13300
F382        F  0.38952586  0.13360525  0.08387701    -0.15700
F383        F  0.31966246  0.21566403  0.99966026    -0.15700
F384        F  0.32528735  0.24181633  0.05938873    -0.13300
C385        C  0.98104990  0.35612018  0.30080176     0.24700
C386        C  0.96046237  0.30697573  0.31180464    -0.23400
C387        C  0.98653683  0.28129213  0.30657769     0.19600
C388        C  0.03045347  0.30265953  0.28973661     0.24600
C389        C  0.05139719  0.35162385  0.27816032    -0.23300
C390        C  0.02636851  0.37840759  0.28417085     0.19600
F391        F  0.04596500  0.42611750  0.27442870    -0.13300
F392        F  0.95661452  0.38187052  0.30527204    -0.15700
F393        F  0.05245031  0.27461513  0.28488779    -0.15700
F394        F  0.96905381  0.23448850  0.31759523    -0.13300
C395        C  0.34295744  0.34671644  0.23827322     0.24700
C396        C  0.31944356  0.36852009  0.22234531    -0.23400
C397        C  0.32108701  0.36910470  0.19025187     0.19600
C398        C  0.34332337  0.34575466  0.17445828     0.24600
C399        C  0.36367906  0.32091471  0.19049156    -0.23300
C400        C  0.36480781  0.32314483  0.22252341     0.19600
F401        F  0.38460766  0.29973851  0.23868916    -0.13300
F402        F  0.34046581  0.34387793  0.26899569    -0.15700
F403        F  0.34087768  0.34360544  0.14369341    -0.15700
F404        F  0.29858845  0.38994174  0.17413266    -0.13300
C405        C  0.13617325  0.36051340  0.38198003     0.24700
C406        C  0.16409135  0.35427689  0.40497939    -0.23400
C407        C  0.20155549  0.34291872  0.39674830     0.19600
C408        C  0.21392121  0.34257349  0.36607011     0.24600
C409        C  0.18882235  0.35328737  0.34322444    -0.23300
C410        C  0.14849926  0.36021321  0.35149051     0.19600
F411        F  0.12530154  0.37345334  0.33036158    -0.13300
F412        F  0.10063316  0.37255023  0.38917054    -0.15700
F413        F  0.25402142  0.33743027  0.35896810    -0.15700
F414        F  0.23024471  0.33808816  0.41840875    -0.13300
C415        C  0.24767227  0.43867263  0.11366428     0.24700
C416        C  0.21504570  0.39849546  0.09483211    -0.23400
C417        C  0.17373980  0.35669618  0.10821604     0.19600
C418        C  0.16317096  0.35724172  0.13926068     0.24600
C419        C  0.19341975  0.39977547  0.15711179    -0.23300
C420        C  0.23684752  0.43944967  0.14412117     0.19600
F421        F  0.26956052  0.47958000  0.16100243    -0.13300
F422        F  0.28989674  0.47844524  0.10250826    -0.15700
F423        F  0.12239765  0.31728119  0.15143511    -0.15700
F424        F  0.14237898  0.31636786  0.09111690    -0.13300
C425        C  0.95439359  0.31717619  0.02290139     0.24700
C426        C  0.95226244  0.32395156  0.05456511    -0.23400
C427        C  0.99656809  0.35910098  0.06944765     0.19600
C428        C  0.04250107  0.38309319  0.05368100     0.24600
C429        C  0.04482235  0.37366722  0.02253046    -0.23300
C430        C  0.99999422  0.34202475  0.00709784     0.19600
F431        F  0.00094217  0.33156845  0.97726808    -0.13300
F432        F  0.91249734  0.28447124  0.00730086    -0.15700
F433        F  0.08537933  0.41375276  0.06921479    -0.15700
F434        F  0.99624944  0.36738369  0.09965569    -0.13300
C435        C  0.29717786  0.27255867  0.45726923     0.24700
C436        C  0.34574378  0.29909568  0.44468164    -0.23400
C437        C  0.37300223  0.35152235  0.44797430     0.19600
C438        C  0.35191539  0.37641996  0.46370682     0.24600
C439        C  0.30365307  0.34910865  0.47658717    -0.23300
C440        C  0.27719127  0.29693214  0.47348602     0.19600
F441        F  0.21958692  0.27122252  0.97993781    -0.13300
F442        F  0.26790552  0.22241144  0.45345491    -0.15700
F443        F  0.37766128  0.42700469  0.46528559    -0.15700
F444        F  0.41981021  0.37852998  0.43614536    -0.13300
C445        C  0.66275175  0.96256506  0.35410592     0.24700
C446        C  0.64492354  0.95684268  0.38425694    -0.23400
C447        C  0.64674085  0.99848032  0.39844085     0.19600
C448        C  0.66876778  0.04500730  0.38354373     0.24600
C449        C  0.68703742  0.05033419  0.35362584    -0.23300
C450        C  0.68247387  0.00824882  0.33887173     0.19600
F451        F  0.70139276  0.01240462  0.31055911    -0.13300
F452        F  0.66366205  0.92448421  0.33961353    -0.15700
F453        F  0.67470744  0.08563373  0.39892180    -0.15700
F454        F  0.63081382  0.99526575  0.42745187    -0.13300
C455        C  0.65440635  0.66426951  0.49008794     0.24700
C456        C  0.67588413  0.64042626  0.47414505    -0.23400
C457        C  0.67275113  0.63878733  0.44214446     0.19600
C458        C  0.65212264  0.66357373  0.42632203     0.24600
C459        C  0.63479906  0.69112014  0.44217662    -0.23300
C460        C  0.63406047  0.68944783  0.47421243     0.19600
F461        F  0.61511922  0.71376211  0.49015504    -0.13300
F462        F  0.65704912  0.66695041  0.52083242    -0.15700
F463        F  0.65307747  0.66415532  0.39553797    -0.15700
F464        F  0.70303647  0.62598542  0.92252503    -0.13300
C465        C  0.34153784  0.61417734  0.45195113     0.24700
C466        C  0.34215967  0.56895437  0.45343394    -0.23400
C467        C  0.38915305  0.57133420  0.45412261     0.19600
C468        C  0.43380916  0.61702185  0.45481567     0.24600
C469        C  0.43360085  0.66245825  0.45349117    -0.23300
C470        C  0.38675063  0.66041263  0.45209199     0.19600
F471        F  0.38516716  0.70829560  0.95042769    -0.13300
F472        F  0.29643220  0.62053327  0.95234504    -0.15700
F473        F  0.47765305  0.61636824  0.45624722    -0.15700
F474        F  0.39234980  0.52914297  0.45456880    -0.13300
C475        C  0.65244593  0.03297657  0.11874100     0.24700
C476        C  0.69880268  0.05299614  0.10360558    -0.23400
C477        C  0.72375300  0.02554397  0.10316859     0.19600
C478        C  0.70459134  0.98048175  0.11857763     0.24600
C479        C  0.65907977  0.96063670  0.13489938    -0.23300
C480        C  0.63262971  0.98705145  0.13425561     0.19600
F481        F  0.58782561  0.96864323  0.14858949    -0.13300
F482        F  0.62764113  0.05887909  0.11973671    -0.15700
F483        F  0.73193843  0.95706568  0.11797678    -0.15700
F484        F  0.76819340  0.04339597  0.08838393    -0.13300
C485        C  0.65558492  0.66070650  0.17130214     0.24700
C486        C  0.63822605  0.68847236  0.18708699    -0.23400
C487        C  0.63870919  0.68788910  0.21912278     0.19600
C488        C  0.66085422  0.66458186  0.23501022     0.24600
C489        C  0.68228611  0.64068831  0.21920348    -0.23300
C490        C  0.67706215  0.63661162  0.18731433     0.19600
F491        F  0.69473710  0.61091581  0.17161358    -0.13300
F492        F  0.65546694  0.66017960  0.14051111    -0.15700
F493        F  0.66482550  0.66874581  0.26567734    -0.15700
F494        F  0.61981400  0.71225394  0.23507115    -0.13300
C495        C  0.40056596  0.58317021  0.22377231     0.24700
C496        C  0.35268805  0.57915042  0.22269475    -0.23400
C497        C  0.35015759  0.62200705  0.21472090     0.19600
C498        C  0.39392075  0.66658478  0.20663964     0.24600
C499        C  0.44112163  0.66939946  0.20653796    -0.23300
C500        C  0.44386836  0.62747322  0.21597009     0.19600
F501        F  0.48879348  0.62900353  0.21725953    -0.13300
F502        F  0.40616771  0.54412008  0.23239223    -0.15700
F503        F  0.38964705  0.70619522  0.19758626    -0.15700
F504        F  0.30542929  0.62081076  0.21439496    -0.13300
C505        C  0.65949505  0.80534424  0.30098240     0.24700
C506        C  0.62614295  0.81109577  0.32004795    -0.23400
C507        C  0.60029738  0.83432370  0.30859362     0.19600
C508        C  0.60580983  0.84968104  0.27855401     0.24600
C509        C  0.63521615  0.83987230  0.25851503    -0.23300
C510        C  0.66387911  0.81951286  0.27020647     0.19600
F511        F  0.69251347  0.80937246  0.25142419    -0.13300
F512        F  0.68414959  0.78216916  0.31134591    -0.15700
F513        F  0.57924242  0.87105814  0.26838822    -0.15700
F514        F  0.56846311  0.84128283  0.32654457    -0.13300
C515        C  0.66569124  0.80883923  0.04720729     0.24700
C516        C  0.64031632  0.82185381  0.06852939    -0.23400
C517        C  0.62107251  0.85256560  0.05937799     0.19600
C518        C  0.62178230  0.86511838  0.02891672     0.24600
C519        C  0.64200267  0.84749578  0.00695302    -0.23300
C520        C  0.66699401  0.82211494  0.01651102     0.19600
F521        F  0.68797367  0.80571556  0.99578160    -0.13300
F522        F  0.68477573  0.77941976  0.05544589    -0.15700
F523        F  0.59892728  0.89108705  0.02045040    -0.15700
F524        F  0.59774984  0.86705750  0.07969733    -0.13300
C525        C  0.00055580  0.66604134  0.31967836     0.24700
C526        C  0.04527628  0.69708936  0.30403387    -0.23400
C527        C  0.04257814  0.70307861  0.27240441     0.19600
C528        C  0.99634543  0.68010464  0.25702378     0.24600
C529        C  0.95159849  0.65162863  0.27299991    -0.23300
C530        C  0.95407253  0.64414657  0.30436594     0.19600
F531        F  0.91113676  0.61679346  0.32035401    -0.13300
F532        F  0.00143496  0.65972652  0.35008495    -0.15700
F533        F  0.99506457  0.68877212  0.22693336    -0.15700
F534        F  0.08472874  0.73277428  0.25640372    -0.13300
C535        C  0.34498716  0.04044700  0.35832009     0.24700
C536        C  0.35650351  0.04478143  0.38966577    -0.23400
C537        C  0.34897165  0.00206272  0.40534228     0.19600
C538        C  0.32719375  0.95562258  0.39041141     0.24600
C539        C  0.31406450  0.95148702  0.35943974    -0.23300
C540        C  0.32457987  0.99447140  0.34337014     0.19600
F541        F  0.31117101  0.99122910  0.31370468    -0.13300
F542        F  0.35115180  0.08038467  0.34224993    -0.15700
F543        F  0.31633335  0.91412632  0.40656248    -0.15700
F544        F  0.35885919  0.00439596  0.43552107    -0.13300
C545        C  0.33326505  0.72677480  0.38120027     0.24700
C546        C  0.33063329  0.77041515  0.38606328    -0.23400
C547        C  0.37502935  0.81499426  0.39305782     0.19600
C548        C  0.42139641  0.81742566  0.39229848     0.24600
C549        C  0.42497350  0.77470724  0.38550397    -0.23300
C550        C  0.38004499  0.72887381  0.38098162     0.19600
F551        F  0.38123185  0.68622846  0.37591041    -0.13300
F552        F  0.29105270  0.68273365  0.37488256    -0.15700
F553        F  0.46286980  0.86235371  0.39815373    -0.15700
F554        F  0.37391574  0.85748963  0.39902471    -0.13300
C555        C  0.18605638  0.56120739  0.31455503     0.24700
C556        C  0.23134633  0.56365069  0.30623134    -0.23400
C557        C  0.27432007  0.61075429  0.30186466     0.19600
C558        C  0.27119823  0.65430923  0.30393691     0.24600
C559        C  0.22491106  0.65157419  0.31038136    -0.23300
C560        C  0.18272284  0.60436940  0.31635186     0.19600
F561        F  0.13766660  0.59942844  0.32394575    -0.13300
F562        F  0.14407450  0.51648842  0.31976551    -0.15700
F563        F  0.31334596  0.69895326  0.29906573    -0.15700
F564        F  0.31867932  0.61464386  0.29364891    -0.13300
C565        C  0.01594490  0.72683927  0.05073566     0.24700
C566        C  0.04046053  0.70002438  0.05783203    -0.23400
C567        C  0.01744067  0.64955374  0.04854641     0.19600
C568        C  0.97130282  0.62712674  0.03215255     0.24600
C569        C  0.94786659  0.65503043  0.02459031    -0.23300
C570        C  0.97144215  0.70527874  0.03409757     0.19600
F571        F  0.95137377  0.73446647  0.02728069    -0.13300
F572        F  0.03527011  0.77497375  0.05991300    -0.15700
F573        F  0.94919428  0.57817861  0.02434568    -0.15700
F574        F  0.03992971  0.62238767  0.05468831    -0.13300
C575        C  0.35065520  0.98294593  0.11886196     0.24700
C576        C  0.29990802  0.96047820  0.10973804    -0.23400
C577        C  0.27174500  0.98276017  0.11839720     0.19600
C578        C  0.29331588  0.02629753  0.13550151     0.24600
C579        C  0.34437908  0.05007913  0.14404148    -0.23300
C580        C  0.37287334  0.02767181  0.13593796     0.19600
F581        F  0.42214929  0.04951772  0.14384850    -0.13300
F582        F  0.37805710  0.96094280  0.11208264    -0.15700
F583        F  0.26380055  0.04551552  0.14357660    -0.15700
F584        F  0.22253974  0.96202204  0.11031688    -0.13300
C585        C  0.38942924  0.82777808  0.12354908     0.24700
C586        C  0.34465331  0.78293795  0.11709189    -0.23400
C587        C  0.34657959  0.73850192  0.11488846     0.19600
C588        C  0.39239963  0.73923063  0.11821535     0.24600
C589        C  0.43742191  0.78444042  0.12369916    -0.23300
C590        C  0.43505171  0.82867808  0.12643081     0.19600
F591        F  0.47689398  0.87337404  0.13225271    -0.13300
F592        F  0.38944038  0.87141086  0.12684974    -0.15700
F593        F  0.39245220  0.69552511  0.11617285    -0.15700
F594        F  0.30444219  0.69441206  0.10857061    -0.13300
C595        C  0.27286174  0.62703910  0.02910819     0.24700
C596        C  0.22673366  0.58174549  0.02653980    -0.23400
C597        C  0.18177957  0.58350143  0.02673033     0.19600
C598        C  0.18266586  0.62856606  0.02917175     0.24600
C599        C  0.22825898  0.67360759  0.03333891    -0.23300
C600        C  0.27359202  0.67254831  0.03284240     0.19600
F601        F  0.31843469  0.71508378  0.03690203    -0.13300
F602        F  0.31721281  0.62750252  0.02786590    -0.15700
F603        F  0.13798322  0.60988899  0.55587389    -0.15700
F604        F  0.14372979  0.52747701  0.54853515    -0.13300
C605        C  0.12895805  0.76892709  0.45001331     0.24700
C606        C  0.15326419  0.80612768  0.42804423    -0.23400
C607        C  0.18564571  0.85570394  0.43758010     0.19600
C608        C  0.19773363  0.86667952  0.46848765     0.24600
C609        C  0.17679220  0.82831073  0.49005464    -0.23300
C610        C  0.14045453  0.77996738  0.48072702     0.19600
F611        F  0.12014161  0.74213143  0.50111155    -0.13300
F612        F  0.09799794  0.72076404  0.44145131    -0.15700
F613        F  0.23364450  0.91339248  0.47690323    -0.15700
F614        F  0.21027545  0.89222885  0.41680263    -0.13300
C615        C  0.18214988  0.76484264  0.22886229     0.24700
C616        C  0.19932618  0.81302126  0.24067178    -0.23400
C617        C  0.19797689  0.84917742  0.22203570     0.19600
C618        C  0.18323147  0.83812153  0.19136446     0.24600
C619        C  0.16888193  0.79051705  0.17932489    -0.23300
C620        C  0.16647601  0.75360395  0.19883494     0.19600
F621        F  0.15113527  0.70682290  0.18835591    -0.13300
F622        F  0.18049727  0.72812438  0.24653763    -0.15700
F623        F  0.18685039  0.87492880  0.17300409    -0.15700
F624        F  0.21421681  0.89590980  0.23283221    -0.13300
O625        O  0.19081308  0.85268765  0.54253930    -0.84200
O626        O  0.11347379  0.76917638  0.56488571    -0.81300
C627        C  0.08981598  0.72442051  0.57298449     0.99200
O628        O  0.10981534  0.70718611  0.59083308    -0.81300
O629        O  0.18023540  0.70259995  0.55666177    -0.84000
C630        C  0.22068797  0.70837981  0.54647170     1.03800
O631        O  0.25926256  0.75179108  0.54751459    -0.76700
O632        O  0.22841127  0.81475179  0.52292642    -0.76900
C633        C  0.20066354  0.83358673  0.51992206     1.03700
O634        O  0.22999305  0.87889897  0.60494207    -0.84200
O635        O  0.14847907  0.79832613  0.62723276    -0.81300
C636        C  0.16514381  0.77943915  0.64635243     0.99200
O637        O  0.18624536  0.75578717  0.63765678    -0.81300
O638        O  0.25370360  0.74075380  0.60561408    -0.83900
C639        C  0.29665453  0.78032852  0.60656354     1.03700
O640        O  0.30129931  0.82063718  0.59702987    -0.76800
O641        O  0.28461669  0.89035851  0.56977754    -0.76900
C642        C  0.27146917  0.90639088  0.59251648     1.03700
Cr643      Cr  0.17325440  0.82256184  0.58465862     1.93700
Cr644      Cr  0.18393331  0.73081093  0.59676216     1.93200
Cr645      Cr  0.26423914  0.81790622  0.56043466     1.39100
O646        O  0.20704450  0.79057029  0.58091682    -1.22000
O647        O  0.19374708  0.84075479  0.79202500    -0.84200
O648        O  0.11214190  0.76202595  0.81473108    -0.81300
C649        C  0.08606143  0.71922538  0.82569802     0.99200
O650        O  0.10137389  0.70632839  0.84899718    -0.81300
O651        O  0.17366682  0.68955490  0.82454279    -0.84000
C652        C  0.21502759  0.69480752  0.81601460     1.03800
O653        O  0.25374737  0.73818994  0.81618048    -0.76700
O654        O  0.23139983  0.79828168  0.78196927    -0.76900
C655        C  0.20489303  0.81642477  0.77340886     1.03700
O656        O  0.22435020  0.87677199  0.85543844    -0.84200
O657        O  0.13812004  0.80216175  0.87676229    -0.81300
C658        C  0.15348224  0.78911812  0.89986506     0.99200
O659        O  0.17389211  0.76283308  0.89707159    -0.81300
O660        O  0.24188925  0.73691553  0.87435426    -0.83900
C661        C  0.28527252  0.77598438  0.87453732     1.03700
O662        O  0.29097371  0.81488399  0.86217080    -0.76800
O663        O  0.28232500  0.88053167  0.82545962    -0.76900
C664        C  0.26883970  0.89966664  0.84626768     1.03700
Cr665      Cr  0.16930314  0.81821407  0.83498447     1.93700
Cr666      Cr  0.17417761  0.72800694  0.86004307     1.93200
Cr667      Cr  0.26058477  0.80679748  0.82229770     1.39100
O668        O  0.20097963  0.78409570  0.83902373    -1.22000
O669        O  0.65007078  0.79755447  0.62060523    -0.84200
O670        O  0.65161941  0.87922984  0.64185447    -0.81300
C671        C  0.63292448  0.90550114  0.64946788     0.99200
O672        O  0.59801770  0.88909812  0.66912847    -0.81300
O673        O  0.51532121  0.81751368  0.63983814    -0.84000
C674        C  0.47993998  0.77691832  0.63023595     1.03800
O675        O  0.48304172  0.73776612  0.63261770    -0.76700
O676        O  0.57223532  0.76318606  0.60426064    -0.76900
C677        C  0.61864058  0.78979077  0.59949994     1.03700
O678        O  0.64258697  0.76411503  0.68440621    -0.84200
O679        O  0.65228609  0.84994602  0.70461056    -0.81300
C680        C  0.61915416  0.83614503  0.72508048     0.99200
O681        O  0.57340797  0.81739606  0.71841944    -0.81300
O682        O  0.48520741  0.74926754  0.69098640    -0.83900
C683        C  0.48106461  0.70616432  0.69287331     1.03700
O684        O  0.51410897  0.69889394  0.68127412    -0.76800
O685        O  0.59558827  0.70959353  0.65021693    -0.76900
C686        C  0.62325748  0.72086803  0.67367466     1.03700
Cr687      Cr  0.64468992  0.82050481  0.66278448     1.93700
Cr688      Cr  0.54559092  0.81672719  0.67859401     1.93200
Cr689      Cr  0.54408924  0.73138419  0.64307019     1.39100
O690        O  0.57831563  0.78984314  0.66169692    -1.22000
O691        O  0.65523979  0.85775296  0.95311398    -0.84200
O692        O  0.64352045  0.77060116  0.93365422    -0.81300
C693        C  0.62279204  0.72669385  0.92382177     0.99200
O694        O  0.59312482  0.71423270  0.90122724    -0.81300
O695        O  0.51509017  0.70547419  0.93459925    -0.84000
C696        C  0.48084133  0.71148498  0.94541473     1.03800
O697        O  0.48581648  0.75498697  0.94497689    -0.76700
O698        O  0.57816103  0.82369309  0.97055489    -0.76900
C699        C  0.62477082  0.84350307  0.97516008     1.03700
O700        O  0.64758872  0.88285135  0.88994297    -0.84200
O701        O  0.64516660  0.79981684  0.86968520    -0.81300
C702        C  0.61205217  0.79037541  0.84940782     0.99200
O703        O  0.56608242  0.76543453  0.85575817    -0.81300
O704        O  0.47935880  0.74243734  0.88685472    -0.83900
C705        C  0.47534216  0.78129182  0.88618952     1.03700
O706        O  0.51239814  0.82215552  0.89404998    -0.76800
O707        O  0.59835596  0.89412291  0.92062512    -0.76900
C708        C  0.62897728  0.90883809  0.89844670     1.03700
Cr709      Cr  0.64352116  0.82567971  0.91167371     1.93700
Cr710      Cr  0.54123654  0.73586519  0.89541256     1.93200
Cr711      Cr  0.54625558  0.82224669  0.93163264     1.39100
O712        O  0.57716362  0.79491545  0.91298508    -1.22000
O713        O  0.14235708  0.35339530  0.95844722    -0.84200
O714        O  0.22368848  0.35582431  0.98131955    -0.81300
C715        C  0.26945056  0.37555634  0.98784478     0.99200
O716        O  0.29514751  0.41095847  0.50577142    -0.81300
O717        O  0.29697455  0.49007871  0.96916414    -0.84000
C718        C  0.29245629  0.52535123  0.95903584     1.03800
O719        O  0.24953184  0.52176379  0.96033377    -0.76700
O720        O  0.18364018  0.42730618  0.93715776    -0.76900
C721        C  0.16307371  0.38057545  0.93527275     1.03700
O722        O  0.12413744  0.36433631  0.52171444    -0.84200
O723        O  0.20403870  0.36169112  0.54314935    -0.81300
C724        C  0.22302429  0.39775118  0.56184880     0.99200
O725        O  0.24907017  0.44192021  0.55262797    -0.81300
O726        O  0.26627482  0.52392311  0.51990267    -0.83900
C727        C  0.22695265  0.52776487  0.52138772     1.03700
O728        O  0.18570289  0.49334278  0.51112421    -0.76800
O729        O  0.10920612  0.41167713  0.98375384    -0.76900
C730        C  0.09762093  0.37968712  0.50957056     1.03700
Cr731      Cr  0.17869261  0.36129501  0.50079202     1.93700
Cr732      Cr  0.27374900  0.46292225  0.51144134     1.93200
Cr733      Cr  0.18260879  0.46210960  0.97391428     1.39100
O734        O  0.21275052  0.42676413  0.49602210    -1.22000
O735        O  0.15485450  0.35983311  0.70611085    -0.84200
O736        O  0.23545967  0.35933425  0.72740972    -0.81300
C737        C  0.27917957  0.37650624  0.73748926     0.99200
O738        O  0.29253469  0.40383955  0.76113412    -0.81300
O739        O  0.30473810  0.48998797  0.73601160    -0.84000
C740        C  0.29861583  0.52512383  0.72704819     1.03800
O741        O  0.25588496  0.52181647  0.73009072    -0.76700
O742        O  0.19077858  0.44016273  0.69732458    -0.76900
C743        C  0.17574774  0.39652019  0.68803616     1.03700
O744        O  0.12008056  0.35147537  0.76887314    -0.84200
O745        O  0.19674160  0.34487572  0.79076656    -0.81300
C746        C  0.21074691  0.37395518  0.81370433     0.99200
O747        O  0.23883865  0.42030805  0.81057342    -0.81300
O748        O  0.26368813  0.51289718  0.78778677    -0.83900
C749        C  0.22445185  0.51646298  0.79080319     1.03700
O750        O  0.18376179  0.48379736  0.77924009    -0.76800
O751        O  0.11305461  0.40858062  0.74413927    -0.76900
C752        C  0.09467184  0.37133820  0.76186727     1.03700
Cr753      Cr  0.17922364  0.35852364  0.74864396     1.93700
Cr754      Cr  0.27059652  0.45410082  0.77270122     1.93200
Cr755      Cr  0.18713747  0.46051644  0.73860263     1.39100
O756        O  0.21207073  0.42409756  0.75332112    -1.22000
O757        O  0.34712999  0.20590309  0.62377759    -0.84200
O758        O  0.34699721  0.12576713  0.64548201    -0.81300
C759        C  0.36620509  0.09977791  0.65257289     0.99200
O760        O  0.40244947  0.11652162  0.67166995    -0.81300
O761        O  0.48398829  0.18741452  0.64178960    -0.84000
C762        C  0.52101857  0.22789507  0.63384249     1.03800
O763        O  0.51612900  0.26629609  0.63353573    -0.76700
O764        O  0.42332293  0.23677911  0.60566854    -0.76900
C765        C  0.37639945  0.21088691  0.60208727     1.03700
O766        O  0.35869739  0.24219772  0.68723222    -0.84200
O767        O  0.34943297  0.15666822  0.70771691    -0.81300
C768        C  0.38327669  0.17186518  0.72795966     0.99200
O769        O  0.42881842  0.19056682  0.72089132    -0.81300
O770        O  0.51604202  0.25868388  0.69167374    -0.83900
C771        C  0.52038475  0.30200867  0.69110931     1.03700
O772        O  0.48444210  0.30641193  0.68138628    -0.76800
O773        O  0.40164381  0.29361558  0.65100260    -0.76900
C774        C  0.37554234  0.28400152  0.67502720     1.03700
Cr775      Cr  0.35501618  0.18482465  0.66593680     1.93700
Cr776      Cr  0.45514531  0.18958792  0.68074483     1.93200
Cr777      Cr  0.45374355  0.27196235  0.64369445     1.39100
O778        O  0.42117172  0.21506733  0.66367420    -1.22000
O779        O  0.33629127  0.14461279  0.95726565    -0.84200
O780        O  0.33853398  0.22558421  0.93547321    -0.81300
C781        C  0.35808927  0.27064503  0.92829982     0.99200
O782        O  0.39378345  0.28925482  0.90929998    -0.81300
O783        O  0.47338865  0.29814529  0.94121021    -0.84000
C784        C  0.50788066  0.29209832  0.95171678     1.03800
O785        O  0.50482366  0.24980201  0.94889838    -0.76700
O786        O  0.41393841  0.18258644  0.97487880    -0.76900
C787        C  0.36734169  0.16206557  0.97932901     1.03700
O788        O  0.34629521  0.11806631  0.89366962    -0.84200
O789        O  0.34207891  0.19681866  0.87252304    -0.81300
C790        C  0.37736422  0.21299072  0.85329567     0.99200
O791        O  0.42197371  0.24264808  0.86110274    -0.81300
O792        O  0.50736688  0.26245148  0.89068921    -0.83900
C793        C  0.51121632  0.22357942  0.88764847     1.03700
O794        O  0.47777292  0.18274781  0.89841893    -0.76800
O795        O  0.39376590  0.10942579  0.92706785    -0.76900
C796        C  0.36432365  0.09283792  0.90429167     1.03700
Cr797      Cr  0.34549405  0.17363393  0.91489039     1.93700
Cr798      Cr  0.44619800  0.26882944  0.90157389     1.93200
Cr799      Cr  0.44477352  0.18267782  0.93617466     1.39100
O800        O  0.41187718  0.20836621  0.91749943    -1.22000
O801        O  0.79552910  0.16128630  0.54202200    -0.84200
O802        O  0.87937818  0.24070448  0.56251332    -0.81300
C803        C  0.90730004  0.28399483  0.57247321     0.99200
O804        O  0.89427752  0.29845016  0.59608907    -0.81300
O805        O  0.82088661  0.31474345  0.57293657    -0.84000
C806        C  0.77937794  0.31034429  0.56551480     1.03800
O807        O  0.73991802  0.26740392  0.56687381    -0.76700
O808        O  0.75650724  0.20279689  0.53279216    -0.76900
C809        C  0.78234375  0.18424363  0.52367420     1.03700
O810        O  0.77049932  0.12775340  0.60495460    -0.84200
O811        O  0.85783866  0.20369175  0.62524576    -0.81300
C812        C  0.84487147  0.21855489  0.64856073     0.99200
O813        O  0.82512060  0.24551264  0.64607544    -0.81300
O814        O  0.75624281  0.27215444  0.62448269    -0.83900
C815        C  0.71231436  0.23384927  0.62592513     1.03700
O816        O  0.70484603  0.19352806  0.61459531    -0.76800
O817        O  0.70842335  0.12392385  0.57839956    -0.76900
C818        C  0.72564704  0.10372429  0.59620141     1.03700
Cr819      Cr  0.82363976  0.18597416  0.58411575     1.93700
Cr820      Cr  0.82237515  0.27836483  0.60881532     1.93200
Cr821      Cr  0.73157832  0.19803876  0.57396685     1.39100
O822        O  0.79266715  0.22071049  0.58899643    -1.22000
O823        O  0.79965358  0.15033312  0.79205774    -0.84200
O824        O  0.87617834  0.23236363  0.81548854    -0.81300
C825        C  0.90089556  0.27786204  0.82200283     0.99200
O826        O  0.88169807  0.29749733  0.83861409    -0.81300
O827        O  0.81456599  0.30357930  0.80238380    -0.84000
C828        C  0.77541375  0.29751338  0.78981526     1.03800
O829        O  0.73604331  0.25489126  0.79092397    -0.76700
O830        O  0.76808053  0.19175783  0.76965133    -0.76900
C831        C  0.79492218  0.17175889  0.76871266     1.03700
O832        O  0.75513292  0.12723054  0.85370899    -0.84200
O833        O  0.83755815  0.20653887  0.87673407    -0.81300
C834        C  0.82072866  0.22666820  0.89465537     1.00400
O835        O  0.80236996  0.25211421  0.88457215    -0.81300
O836        O  0.73736156  0.26705060  0.84951253    -0.83900
C837        C  0.69403206  0.22762236  0.84993214     1.03700
O838        O  0.68825158  0.18731411  0.83925518    -0.76800
O839        O  0.70671412  0.11623219  0.81469638    -0.76900
C840        C  0.71525441  0.10039982  0.83934703     1.03700
Cr841      Cr  0.81477282  0.18132631  0.83416523     1.93700
Cr842      Cr  0.80746897  0.27582927  0.84291724     1.93200
Cr843      Cr  0.72865354  0.18887510  0.80494822     1.39100
O844        O  0.78364132  0.21532875  0.82779951    -1.22000
O845        O  0.83740264  0.64485728  0.95494486    -0.84200
O846        O  0.75600559  0.64499797  0.97541056    -0.81300
C847        C  0.71335765  0.62956660  0.98653762     0.99200
O848        O  0.69934846  0.60053912  0.51340098    -0.81300
O849        O  0.68481551  0.51541542  0.98559233    -0.84000
C850        C  0.68990894  0.47937789  0.97721867     1.03800
O851        O  0.73323352  0.48334965  0.97861231    -0.76700
O852        O  0.79823595  0.56464654  0.94538820    -0.76900
C853        C  0.81488541  0.60871657  0.93651452     1.03700
O854        O  0.87086930  0.65720210  0.51951421    -0.84200
O855        O  0.79224264  0.66173789  0.54058186    -0.81300
C856        C  0.78449895  0.63443576  0.56376956     0.99200
O857        O  0.75825085  0.58776294  0.56162153    -0.81300
O858        O  0.73390156  0.49497747  0.53970978    -0.83900
C859        C  0.77350023  0.49163229  0.54104101     1.03700
O860        O  0.81288155  0.52424038  0.52837920    -0.76800
O861        O  0.87756196  0.59582653  0.99251310    -0.76900
C862        C  0.89627150  0.63715698  0.51299300     1.03700
Cr863      Cr  0.81244205  0.64651402  0.99700250     1.93700
Cr864      Cr  0.72346202  0.55176725  0.52475624     1.93200
Cr865      Cr  0.80287028  0.54418036  0.98658946     1.39100
O866        O  0.77909886  0.58105435  0.00167917    -1.22000
O867        O  0.84807087  0.66413951  0.70868691    -0.84200
O868        O  0.75881129  0.64857228  0.72786719    -0.81300
C869        C  0.71352252  0.62444932  0.73563435     0.99200
O870        O  0.69960796  0.59120370  0.75594173    -0.81300
O871        O  0.69679389  0.51794560  0.72053209    -0.84000
C872        C  0.70649535  0.48721462  0.70824506     1.03800
O873        O  0.75093811  0.49440322  0.70960270    -0.76700
O874        O  0.81429446  0.58989836  0.68757525    -0.76900
C875        C  0.83365445  0.63648567  0.68523758     1.03700
O876        O  0.87074099  0.64936534  0.77176316    -0.84200
O877        O  0.78599643  0.64491412  0.79148847    -0.81300
C878        C  0.77130341  0.60968143  0.81054482     0.99200
O879        O  0.75070271  0.56505290  0.80171282    -0.81300
O880        O  0.73671211  0.48429425  0.76809285    -0.83900
C881        C  0.77700537  0.48229924  0.76889749     1.03700
O882        O  0.81747035  0.51930832  0.76036597    -0.76800
O883        O  0.88611320  0.60911821  0.73656604    -0.76900
C884        C  0.89838044  0.63392560  0.76119954     1.03700
Cr885      Cr  0.81403125  0.64736500  0.74965822     1.93700
Cr886      Cr  0.72514661  0.54262605  0.76075150     1.93200
Cr887      Cr  0.81541520  0.55559062  0.72465626     1.39100
O888        O  0.78497501  0.58192652  0.74512473    -1.22000
C889        C  0.83637797  0.65572654  0.88655209     0.24700
C890        C  0.80293939  0.61585238  0.90501561    -0.23400
C891        C  0.75562434  0.58051257  0.89314515     0.19600
C892        C  0.74345620  0.58249967  0.86301686     0.24600
C893        C  0.77871709  0.61891838  0.84355679    -0.23300
C894        C  0.82441151  0.65711284  0.85580394     0.19600
F895        F  0.85889906  0.69335925  0.83761312    -0.13300
F896        F  0.88167479  0.69116476  0.89760937    -0.15700
F897        F  0.69770803  0.54703939  0.85240606    -0.15700
F898        F  0.72076194  0.54344468  0.91080651    -0.13300
C899        C  0.80740988  0.67682604  0.64555592     0.24700
C900        C  0.83783505  0.65682128  0.65440884    -0.23400
C901        C  0.85955753  0.64179506  0.63193772     0.19600
C902        C  0.84596752  0.64033012  0.60160849     0.24600
C903        C  0.81081503  0.65447354  0.59294651    -0.23300
C904        C  0.79323811  0.67493031  0.61490398     0.19600
F905        F  0.75846181  0.68787789  0.60731917    -0.13300
F906        F  0.78707657  0.69297934  0.66685610    -0.15700
F907        F  0.86223343  0.61885750  0.58116492    -0.15700
F908        F  0.88953082  0.62299418  0.63979970    -0.13300
C909        C  0.73011804  0.38936898  0.77790434     0.24700
C910        C  0.77603524  0.43466720  0.77512942    -0.23400
C911        C  0.82102889  0.43299198  0.77406230     0.19600
C912        C  0.82015878  0.38766488  0.77600484     0.24600
C913        C  0.77444962  0.34257440  0.77963786    -0.23300
C914        C  0.72932739  0.34382475  0.77980922     0.19600
F915        F  0.68441483  0.30121943  0.78308492    -0.13300
F916        F  0.68569053  0.38880627  0.77846008    -0.15700
F917        F  0.86461767  0.38823125  0.77506770    -0.15700
F918        F  0.86641323  0.47528877  0.77122161    -0.13300
C919        C  0.81971317  0.40417732  0.56463429     0.24700
C920        C  0.77685963  0.35664228  0.55953920    -0.23400
C921        C  0.73125258  0.35451933  0.55181867     0.19600
C922        C  0.72901303  0.39849512  0.54831534     0.24600
C923        C  0.77239118  0.44573745  0.55214809    -0.23300
C924        C  0.81744536  0.44785085  0.56091325     0.19600
F925        F  0.85996618  0.49257497  0.56538295    -0.13300
F926        F  0.86433697  0.40894461  0.57340095    -0.15700
F927        F  0.68486443  0.39473270  0.53956180    -0.15700
F928        F  0.68873878  0.30992375  0.54730071    -0.13300
C929        C  0.82124150  0.25611119  0.94720692     0.24700
C930        C  0.82036677  0.21959101  0.92786717    -0.23400
C931        C  0.81184685  0.17411128  0.94041052     0.19600
C932        C  0.80116066  0.16430904  0.97146163     0.24600
C933        C  0.79815808  0.19954761  0.99008898    -0.23300
C934        C  0.81003830  0.24613623  0.97782486     0.19600
F935        F  0.81079851  0.28239101  0.99561441    -0.13300
F936        F  0.83161035  0.30129149  0.93628901    -0.15700
F937        F  0.79076219  0.11944458  0.98283460    -0.15700
F938        F  0.81037617  0.13789285  0.92233241    -0.13300
C939        C  0.87089013  0.24071132  0.70199818     0.24700
C940        C  0.85028265  0.20363825  0.67949639    -0.23400
C941        C  0.82159772  0.15323084  0.68829819     0.19600
C942        C  0.80806940  0.14095204  0.71886850     0.24600
C943        C  0.82372964  0.17897092  0.74069972    -0.23300
C944        C  0.85779005  0.22849626  0.73230784     0.19600
F945        F  0.87314646  0.26605606  0.75290382    -0.13300
F946        F  0.89871946  0.28956683  0.69416014    -0.15700
F947        F  0.77495901  0.09297320  0.72643641    -0.15700
F948        F  0.80111591  0.11663949  0.66697310    -0.13300
C949        C  0.60139442  0.27170156  0.86929175     0.24700
C950        C  0.55717244  0.22588979  0.87495031    -0.23400
C951        C  0.55887826  0.18144561  0.87189433     0.19600
C952        C  0.60364872  0.18269618  0.86512323     0.24600
C953        C  0.64827042  0.22832027  0.86011688    -0.23300
C954        C  0.64642760  0.27287702  0.86176223     0.19600
F955        F  0.68779846  0.31750827  0.85555731    -0.13300
F956        F  0.60143008  0.31545202  0.87144600    -0.15700
F957        F  0.60294777  0.13852573  0.86365986    -0.15700
F958        F  0.51717334  0.13604041  0.87590838    -0.13300
C959        C  0.60197311  0.34139325  0.95877768     0.24700
C960        C  0.55441626  0.33706092  0.96239733    -0.23400
C961        C  0.55214633  0.37965797  0.97090482     0.19600
C962        C  0.59586942  0.42573625  0.97448055     0.24600
C963        C  0.64374735  0.43076689  0.97023638    -0.23300
C964        C  0.64616938  0.38770824  0.96275003     0.19600
F965        F  0.69121057  0.39030746  0.95893367    -0.13300
F966        F  0.60582684  0.30141688  0.94999811    -0.15700
F967        F  0.59073480  0.46537158  0.98233751    -0.15700
F968        F  0.50715028  0.37708145  0.97521715    -0.13300
C969        C  0.61605359  0.27671959  0.62623592     0.24700
C970        C  0.57133021  0.23123425  0.63180940    -0.23400
C971        C  0.57571839  0.18937120  0.63989710     0.19600
C972        C  0.62253059  0.19240351  0.64140078     0.24600
C973        C  0.66686236  0.23680298  0.63412124    -0.23300
C974        C  0.66325728  0.27942071  0.62729603     0.19600
F975        F  0.70504154  0.32308216  0.62010403    -0.13300
F976        F  0.61423959  0.31847712  0.61929684    -0.15700
F977        F  0.62422839  0.15075883  0.64897826    -0.15700
F978        F  0.53459311  0.14475500  0.64655269    -0.13300
C979        C  0.61965884  0.43924378  0.68833821     0.24700
C980        C  0.66325653  0.43941272  0.69785600    -0.23400
C981        C  0.66036111  0.39349616  0.70444436     0.19600
C982        C  0.61384358  0.34865568  0.70349925     0.24600
C983        C  0.56952082  0.34895039  0.69555385    -0.23300
C984        C  0.57361728  0.39509986  0.68737464     0.19600
F985        F  0.53305494  0.39824565  0.67819588    -0.13300
F986        F  0.62127456  0.48260904  0.68090827    -0.15700
F987        F  0.61222152  0.30529833  0.71077957    -0.15700
F988        F  0.70202647  0.39221733  0.71323618    -0.13300
C989        C  0.40231413  0.16478640  0.78156129     0.24700
C990        C  0.37115832  0.17016824  0.76045286    -0.23400
C991        C  0.33605623  0.18351684  0.77083353     0.19600
C992        C  0.33490830  0.19463078  0.80171790     0.24600
C993        C  0.36957736  0.19349112  0.82206236    -0.23300
C994        C  0.40228597  0.17731226  0.81176703     0.19600
F995        F  0.43583699  0.17520198  0.83099371    -0.13300
F996        F  0.43522540  0.15019142  0.77257825    -0.15700
F997        F  0.30322997  0.21045098  0.81112387    -0.15700
F998        F  0.30619820  0.19008401  0.75082983    -0.13300
C999        C  0.37414349  0.14961799  0.56546503     0.24700
C1000       C  0.35766077  0.18304899  0.57340265    -0.23400
C1001       C  0.33254531  0.19573043  0.55169553     0.19600
C1002       C  0.32948805  0.17986201  0.52148278     0.24600
C1003       C  0.35188521  0.15164629  0.51288371    -0.23300
C1004       C  0.37111486  0.13391436  0.53548705     0.19600
F1005       F  0.39211555  0.10588237  0.52791973    -0.13300
F1006       F  0.39783493  0.13610741  0.58621198    -0.15700
F1007       F  0.31050774  0.19734331  0.50012374    -0.15700
F1008       F  0.31617066  0.22778626  0.55891768    -0.13300
C1009       C  0.97357763  0.35494771  0.79775208     0.24700
C1010       C  0.95251858  0.30599680  0.80920668    -0.23400
C1011       C  0.97760026  0.27932958  0.80361728     0.19600
C1012       C  0.02116007  0.29976043  0.78645738     0.24600
C1013       C  0.04348372  0.34904904  0.77548841    -0.23300
C1014       C  0.01899622  0.37649325  0.78115737     0.19600
F1015       F  0.03907707  0.42402183  0.77097175    -0.13300
F1016       F  0.94952525  0.38118485  0.80171516    -0.15700
F1017       F  0.04151767  0.27052130  0.78061340    -0.15700
F1018       F  0.95941657  0.23235561  0.81451487    -0.13300
C1019       C  0.34663185  0.35203047  0.73613375     0.24700
C1020       C  0.31286991  0.36267278  0.72089913    -0.23400
C1021       C  0.30703034  0.35468651  0.68913483     0.19600
C1022       C  0.33148954  0.33352882  0.67344355     0.24600
C1023       C  0.36189636  0.31919913  0.68910532    -0.23300
C1024       C  0.37037069  0.32990712  0.72044862     0.19600
F1025       F  0.39979709  0.31651378  0.73619828    -0.13300
F1026       F  0.35365700  0.35934384  0.76653137    -0.15700
F1027       F  0.32187049  0.32301933  0.64343084    -0.15700
F1028       F  0.27567002  0.36536835  0.67331371    -0.13300
C1029       C  0.13127651  0.34309191  0.88366152     0.24700
C1030       C  0.16867324  0.36000200  0.90621400    -0.23400
C1031       C  0.21733555  0.37067262  0.89818172     0.19600
C1032       C  0.22957374  0.36865539  0.86788991     0.24600
C1033       C  0.19341927  0.35578217  0.84488268    -0.23300
C1034       C  0.14352660  0.34073095  0.85318841     0.19600
F1035       F  0.10814307  0.32992355  0.83150401    -0.13300
F1036       F  0.08451894  0.33426824  0.89056675    -0.15700
F1037       F  0.27819690  0.38460018  0.86063913    -0.15700
F1038       F  0.25469756  0.38879249  0.91926504    -0.13300
C1039       C  0.24750867  0.42724946  0.61487203     0.24700
C1040       C  0.21373629  0.38995282  0.59492006    -0.23400
C1041       C  0.16830196  0.35074719  0.60661335     0.19600
C1042       C  0.15575094  0.35101291  0.63732013     0.24600
C1043       C  0.18803077  0.39094515  0.65634824    -0.23300
C1044       C  0.23464065  0.42806246  0.64492055     0.19600
F1045       F  0.26827880  0.46577798  0.66297360    -0.13300
F1046       F  0.29275325  0.46439396  0.60504258    -0.15700
F1047       F  0.11107251  0.31408904  0.64787506    -0.15700
F1048       F  0.13472259  0.31407436  0.58802072    -0.13300
C1049       C  0.95787299  0.30714870  0.52436122     0.24700
C1050       C  0.95534560  0.31587872  0.55571279    -0.23400
C1051       C  0.99975971  0.35124996  0.57047684     0.19600
C1052       C  0.04580984  0.37463527  0.55476592     0.24600
C1053       C  0.04820165  0.36438655  0.52376914    -0.23300
C1054       C  0.00358338  0.33123950  0.50864956     0.19600
F1055       F  0.00484540  0.31886560  0.47923964    -0.13300
F1056       F  0.91617147  0.27352949  0.50894879    -0.15700
F1057       F  0.08867280  0.40570807  0.57019563    -0.15700
F1058       F  0.99936419  0.36058650  0.60052962    -0.13300
C1059       C  0.28752244  0.27415255  0.95357281     0.24700
C1060       C  0.33731057  0.29997441  0.94286133    -0.23400
C1061       C  0.36682275  0.35151997  0.94926712     0.19600
C1062       C  0.34634602  0.37653224  0.96552339     0.24600
C1063       C  0.29613379  0.35029859  0.97561164    -0.23300
C1064       C  0.26765093  0.29861739  0.96990194     0.19600
F1065       F  0.23072443  0.26906664  0.48573571    -0.13300
F1066       F  0.25720618  0.22458698  0.94804367    -0.15700
F1067       F  0.37500701  0.42637504  0.97056228    -0.15700
F1068       F  0.41553561  0.37742318  0.94033347    -0.13300
C1069       C  0.66544441  0.96391311  0.85242744     0.24700
C1070       C  0.64438589  0.95668373  0.88183270    -0.23400
C1071       C  0.64029325  0.99606899  0.89484539     0.19600
C1072       C  0.65992456  0.04222177  0.87980711     0.24600
C1073       C  0.68213746  0.04932507  0.85097453    -0.23300
C1074       C  0.68322235  0.00925815  0.83710917     0.19600
F1075       F  0.70553850  0.01539550  0.80968289    -0.13300
F1076       F  0.67113771  0.92785945  0.83874185    -0.15700
F1077       F  0.65940041  0.08088234  0.89400898    -0.15700
F1078       F  0.62029433  0.99114495  0.92287873    -0.13300
C1079       C  0.65410093  0.66371276  0.98674985     0.24700
C1080       C  0.67975427  0.64411265  0.97079601    -0.23400
C1081       C  0.67929824  0.64518218  0.93873644     0.19600
C1082       C  0.65674916  0.66825761  0.92305160     0.24600
C1083       C  0.63493282  0.69149754  0.93911597    -0.23300
C1084       C  0.63204517  0.68738703  0.97101531     0.19600
F1085       F  0.60947744  0.70816597  0.98700639    -0.13300
F1086       F  0.65399448  0.66372073  0.01753192    -0.15700
F1087       F  0.65995060  0.67147314  0.89234330    -0.15700
F1088       F  0.69260243  0.61557783  0.42604791    -0.13300
C1089       C  0.34000585  0.61940275  0.95200924     0.24700
C1090       C  0.33921670  0.57339998  0.95239319    -0.23400
C1091       C  0.38550169  0.57433421  0.95223553     0.19600
C1092       C  0.43088863  0.61927286  0.95289821     0.24600
C1093       C  0.43217222  0.66544678  0.95222481    -0.23300
C1094       C  0.38600150  0.66493424  0.95178995     0.19600
F1095       F  0.38451802  0.70299130  0.45022874    -0.13300
F1096       F  0.29725009  0.61388726  0.45107389    -0.15700
F1097       F  0.47397302  0.61714370  0.95362694    -0.15700
F1098       F  0.38729428  0.53138067  0.95190495    -0.13300
C1099       C  0.65224101  0.03289896  0.62378160     0.24700
C1100       C  0.69595971  0.05085220  0.60608088    -0.23400
C1101       C  0.71729555  0.02045768  0.60221593     0.19600
C1102       C  0.69659226  0.97383824  0.61607625     0.24600
C1103       C  0.65362909  0.95579454  0.63477659    -0.23300
C1104       C  0.63122265  0.98577832  0.63803948     0.19600
F1105       F  0.58948453  0.96995958  0.65527179    -0.13300
F1106       F  0.63145878  0.06197067  0.62855959    -0.15700
F1107       F  0.72004992  0.94709644  0.61157499    -0.15700
F1108       F  0.75966089  0.03673531  0.58545300    -0.13300
C1109       C  0.65321670  0.65880046  0.67289995     0.24700
C1110       C  0.63459761  0.68509383  0.68904620    -0.23400
C1111       C  0.63332301  0.68254547  0.72103401     0.19600
C1112       C  0.65496670  0.65848504  0.73663511     0.24600
C1113       C  0.67807784  0.63657009  0.72045753    -0.23300
C1114       C  0.67459860  0.63449474  0.68854808     0.19600
F1115       F  0.69423981  0.61087667  0.67252873    -0.13300
F1116       F  0.65462454  0.66019008  0.64213516    -0.15700
F1117       F  0.65686136  0.66004438  0.76741298    -0.15700
F1118       F  0.61302877  0.70539057  0.73720872    -0.13300
C1119       C  0.38883357  0.57153152  0.71164563     0.24700
C1120       C  0.34370932  0.57171002  0.71659546    -0.23400
C1121       C  0.34458462  0.61768138  0.71515762     0.19600
C1122       C  0.38969774  0.66223049  0.70915159     0.24600
C1123       C  0.43478603  0.66174006  0.70443429    -0.23300
C1124       C  0.43358697  0.61564244  0.70629140     0.19600
F1125       F  0.47581086  0.61262239  0.70245194    -0.13300
F1126       F  0.39017650  0.52831964  0.71192148    -0.15700
F1127       F  0.38882750  0.70555816  0.70739737    -0.15700
F1128       F  0.30207313  0.61975409  0.71986493    -0.13300
C1129       C  0.65720199  0.80506692  0.79940966     0.24700
C1130       C  0.62518525  0.81207937  0.81886842    -0.23400
C1131       C  0.60018934  0.83655479  0.80806359     0.19600
C1132       C  0.60403465  0.85059532  0.77787176     0.24600
C1133       C  0.63183366  0.83923448  0.75752348    -0.23300
C1134       C  0.66047137  0.81858201  0.76868339     0.19600
F1135       F  0.68728643  0.80683507  0.74937416    -0.13300
F1136       F  0.68127559  0.78106417  0.80934224    -0.15700
F1137       F  0.57702993  0.87161367  0.76788759    -0.15700
F1138       F  0.57010664  0.84508167  0.82666212    -0.13300
C1139       C  0.66306582  0.80753661  0.54907075     0.24700
C1140       C  0.63381129  0.81575149  0.57011833    -0.23400
C1141       C  0.61120080  0.84360925  0.56134650     0.19600
C1142       C  0.61269585  0.85792954  0.53126004     0.24600
C1143       C  0.63746151  0.84531829  0.50933002    -0.23300
C1144       C  0.66551915  0.82301763  0.51878639     0.19600
F1145       F  0.69065123  0.81134271  0.49814796    -0.13300
F1146       F  0.68491794  0.78044036  0.55699593    -0.15700
F1147       F  0.58611495  0.88029198  0.52300727    -0.15700
F1148       F  0.58399550  0.85342606  0.58156649    -0.13300
C1149       C  0.99168357  0.66718286  0.82616685     0.24700
C1150       C  0.03721676  0.68594146  0.81053249    -0.23400
C1151       C  0.03587523  0.68086495  0.77868498     0.19600
C1152       C  0.99041977  0.66087122  0.76254741     0.24600
C1153       C  0.94537854  0.64643845  0.77793933    -0.23300
C1154       C  0.94615280  0.64770396  0.81000777     0.19600
F1155       F  0.90278610  0.63116943  0.82570821    -0.13300
F1156       F  0.99157867  0.67124207  0.85682215    -0.15700
F1157       F  0.99105566  0.65911018  0.73179024    -0.15700
F1158       F  0.07919105  0.69765933  0.76300935    -0.13300
C1159       C  0.34494698  0.03944815  0.85760960     0.24700
C1160       C  0.34918675  0.04371201  0.88955451    -0.23400
C1161       C  0.33324037  0.99997789  0.90655498     0.19600
C1162       C  0.31040427  0.95306697  0.89201592     0.24600
C1163       C  0.30353318  0.94899183  0.86023597    -0.23300
C1164       C  0.32282986  0.99275131  0.84311580     0.19600
F1165       F  0.31688225  0.99016866  0.81251233    -0.13300
F1166       F  0.36041996  0.08060626  0.84031173    -0.15700
F1167       F  0.29328148  0.91123619  0.90908839    -0.15700
F1168       F  0.33617233  0.00221209  0.93729350    -0.13300
C1169       C  0.33377320  0.73065431  0.88101482     0.24700
C1170       C  0.33167656  0.77504173  0.88277575    -0.23400
C1171       C  0.37709944  0.82075479  0.88531716     0.19600
C1172       C  0.42323151  0.82258556  0.88437253     0.24600
C1173       C  0.42583823  0.77849151  0.88210126    -0.23300
C1174       C  0.38037040  0.73235286  0.88078347     0.19600
F1175       F  0.38076951  0.68875972  0.87937976    -0.13300
F1176       F  0.29097096  0.68575103  0.87822512    -0.15700
F1177       F  0.46549786  0.86820572  0.88574213    -0.15700
F1178       F  0.37715322  0.86455052  0.88765531    -0.13300
C1179       C  0.18275526  0.55910858  0.81445961     0.24700
C1180       C  0.22657252  0.56231974  0.80254434    -0.23400
C1181       C  0.26757369  0.60976462  0.79576489     0.19600
C1182       C  0.26372144  0.65283620  0.79931257     0.24600
C1183       C  0.21891160  0.64937765  0.81009742    -0.23300
C1184       C  0.17886786  0.60180723  0.81816276     0.19600
F1185       F  0.13540598  0.59605295  0.82974649    -0.13300
F1186       F  0.14279003  0.51404626  0.82180463    -0.15700
F1187       F  0.30342265  0.69765198  0.79142202    -0.15700
F1188       F  0.31040353  0.61430193  0.78400066    -0.13300
C1189       C  0.00573287  0.71408260  0.56661768     0.24700
C1190       C  0.03746663  0.69453979  0.56198764    -0.23400
C1191       C  0.02226478  0.65418545  0.54177017     0.19600
C1192       C  0.97643094  0.63492103  0.52562458     0.24600
C1193       C  0.94553612  0.65625277  0.52925434    -0.23300
C1194       C  0.96087324  0.69574980  0.55052058     0.19600
F1195       F  0.93304973  0.71791613  0.55572750    -0.13300
F1196       F  0.01941700  0.75290785  0.58609867    -0.15700
F1197       F  0.96298656  0.59632193  0.50608619    -0.15700
F1198       F  0.05297260  0.63533893  0.53641230    -0.13300
C1199       C  0.34885303  0.97802741  0.61747397     0.24700
C1200       C  0.30080703  0.95836141  0.60412013    -0.23400
C1201       C  0.27537745  0.98505946  0.60709790     0.19600
C1202       C  0.29627667  0.02953209  0.62346404     0.24600
C1203       C  0.34414357  0.04967274  0.63742530    -0.23300
C1204       C  0.37051456  0.02351734  0.63392979     0.19600
F1205       F  0.41710429  0.04194724  0.64617766    -0.13300
F1206       F  0.37378790  0.95230842  0.61566060    -0.15700
F1207       F  0.26848180  0.05232146  0.62598106    -0.15700
F1208       F  0.22890168  0.96707995  0.59465577    -0.13300
C1209       C  0.39048373  0.82175124  0.60956672     0.24700
C1210       C  0.34301875  0.77875781  0.61405783    -0.23400
C1211       C  0.34120431  0.73373101  0.62186225     0.19600
C1212       C  0.38570817  0.73204018  0.62539410     0.24600
C1213       C  0.43284354  0.77522058  0.62096723    -0.23300
C1214       C  0.43449193  0.81980795  0.61268372     0.19600
F1215       F  0.47911263  0.86226843  0.60798421    -0.13300
F1216       F  0.39492173  0.86618913  0.60172376    -0.15700
F1217       F  0.38259707  0.68866659  0.63439546    -0.15700
F1218       F  0.29650543  0.69130852  0.62622354    -0.13300
C1219       C  0.27145320  0.62179867  0.52598667     0.24700
C1220       C  0.22901720  0.57452405  0.53139728    -0.23400
C1221       C  0.18484003  0.57213060  0.54186957     0.19600
C1222       C  0.18197651  0.61528584  0.54549272     0.24600
C1223       C  0.22364636  0.66286547  0.53908560    -0.23300
C1224       C  0.26875952  0.66556890  0.52968331     0.19600
F1225       F  0.31019956  0.71037832  0.52392930    -0.13300
F1226       F  0.31504711  0.62568499  0.51619044    -0.15700
F1227       F  0.13794535  0.62752718  0.02840969    -0.15700
F1228       F  0.13605736  0.54137867  0.02448971    -0.13300
C1229       C  0.13056060  0.76870731  0.95364638     0.24700
C1230       C  0.14981201  0.80504584  0.93087622    -0.23400
C1231       C  0.17849784  0.85574228  0.93930699     0.19600
C1232       C  0.19340326  0.86909185  0.96974638     0.24600
C1233       C  0.17830510  0.83183061  0.99194843    -0.23300
C1234       C  0.14467521  0.78193600  0.98383757     0.19600
F1235       F  0.12980208  0.74508854  0.00472232    -0.13300
F1236       F  0.10220166  0.71963533  0.94620050    -0.15700
F1237       F  0.22629014  0.91744787  0.97691976    -0.15700
F1238       F  0.19653925  0.89172395  0.91773876    -0.13300
C1239       C  0.17435094  0.75931217  0.72916746     0.24700
C1240       C  0.18552495  0.80556515  0.74182465    -0.23400
C1241       C  0.17985697  0.83976547  0.72364662     0.19600
C1242       C  0.16870336  0.82991228  0.69247256     0.24600
C1243       C  0.16219456  0.78535046  0.67951135    -0.23300
C1244       C  0.16210323  0.74909076  0.69865619     0.19600
F1245       F  0.15275297  0.70430466  0.68745621    -0.13300
F1246       F  0.17634406  0.72386329  0.74629868    -0.15700
F1247       F  0.16808446  0.86534675  0.67469385    -0.15700
F1248       F  0.18854526  0.88389424  0.73544758    -0.13300
loop_ 
_geom_bond_atom_site_label_1 
_geom_bond_atom_site_label_2 
_geom_bond_distance 
_geom_bond_site_symmetry_2 
_ccdc_geom_bond_type 
O1          Cr19   2.027       .  S
O1            C9   1.271       .  A
O2          Cr19   1.945       .  S
O2            C3   1.252       .  A
C3            O4   1.272       .  A
C3          C566   1.498       .  S
O4          Cr20   2.050       .  S
O5          Cr20   1.942       .  S
O5            C6   1.251       .  A
C6            O7   1.270       .  A
C6          C599   1.483       .  S
O7          Cr21   2.046       .  S
O8          Cr21   1.960       .  S
O8            C9   1.258       .  A
C9         C1233   1.476   1_554  S
O10         Cr19   1.938       .  S
O10          C18   1.249       .  A
O11         Cr19   2.024       .  S
O11          C12   1.270       .  A
C12          O13   1.257       .  A
C12         C619   1.481       .  S
O13         Cr20   1.949       .  S
O14         Cr20   2.048       .  S
O14          C15   1.276       .  A
C15          O16   1.258       .  A
C15         C586   1.487       .  S
O16         Cr21   1.954       .  S
O17         Cr21   2.042       .  S
O17          C18   1.271       .  A
C18         C576   1.479       .  S
Cr19         O22   1.763       .  S
Cr20         O22   1.761       .  S
Cr21         O22   1.778       .  S
O23         Cr41   2.031       .  S
O23          C31   1.273       .  A
O24         Cr41   1.958       .  S
O24          C25   1.254       .  A
C25          O26   1.274       .  A
C25         C526   1.491       .  S
O26         Cr42   2.043       .  S
O27         Cr42   1.961       .  S
O27          C28   1.257       .  A
C28          O29   1.268       .  A
C28         C559   1.487       .  S
O29         Cr43   2.031       .  S
O30         Cr43   1.950       .  S
O30          C31   1.258       .  A
C31         C616   1.481       .  S
O32         Cr41   1.963       .  S
O32          C40   1.251       .  A
O33         Cr41   2.023       .  S
O33          C34   1.270       .  A
C34          O35   1.257       .  A
C34         C606   1.476       .  S
O35         Cr42   1.956       .  S
O36         Cr42   2.050       .  S
O36          C37   1.274       .  A
C37          O38   1.256       .  A
C37         C546   1.480       .  S
O38         Cr43   1.947       .  S
O39         Cr43   2.027       .  S
O39          C40   1.267       .  A
C40         C539   1.474       .  S
Cr41         O44   1.767       .  S
Cr42         O44   1.769       .  S
Cr43         O44   1.768       .  S
O45         Cr63   2.033       .  S
O45          C53   1.273       .  A
O46         Cr63   1.950       .  S
O46          C47   1.253       .  A
C47          O48   1.271       .  A
C47         C479   1.498       .  S
O48         Cr64   2.038       .  S
O49         Cr64   1.949       .  S
O49          C50   1.249       .  A
C50          O51   1.269       .  A
C50         C589   1.490       .  S
O51         Cr65   2.042       .  S
O52         Cr65   1.961       .  S
O52          C53   1.259       .  A
C53         C516   1.480       .  S
O54         Cr63   1.953       .  S
O54          C62   1.251       .  A
O55         Cr63   2.029       .  S
O55          C56   1.270       .  A
C56          O57   1.256       .  A
C56         C509   1.482       .  S
O57         Cr64   1.946       .  S
O58         Cr64   2.051       .  S
O58          C59   1.278       .  A
C59          O60   1.260       .  A
C59         C499   1.488       .  S
O60         Cr65   1.956       .  S
O61         Cr65   2.044       .  S
O61          C62   1.272       .  A
C62         C486   1.487       .  S
Cr63         O66   1.772       .  S
Cr64         O66   1.764       .  S
Cr65         O66   1.775       .  S
O67         Cr85   2.025       .  S
O67          C75   1.270       .  A
O68         Cr85   1.966       .  S
O68          C69   1.253       .  A
C69          O70   1.269       .  A
C69         C459   1.484       .  S
O70         Cr86   2.030       .  S
O71         Cr86   1.942       .  S
O71          C72   1.253       .  A
C72          O73   1.279       .  A
C72         C469   1.492       .  S
O73         Cr87   2.071       .  S
O74         Cr87   1.954       .  S
O74          C75   1.258       .  A
C75        C1143   1.478       .  S
O76         Cr85   1.963       .  S
O76          C84   1.256       .  A
O77         Cr85   2.038       .  S
O77          C78   1.274       .  A
C78          O79   1.259       .  A
C78         C506   1.479       .  S
O79         Cr86   1.951       .  S
O80         Cr86   2.049       .  S
O80          C81   1.269       .  A
C81          O82   1.250       .  A
C81         C549   1.489       .  S
O82         Cr87   1.949       .  S
O83         Cr87   2.051       .  S
O83          C84   1.276       .  A
C84         C446   1.504       .  S
Cr85         O88   1.765       .  S
Cr86         O88   1.771       .  S
Cr87         O88   1.762       .  S
O89        Cr731   2.032       .  S
O89          C97   1.273       .  A
O90        Cr731   1.941       .  S
O90          C91   1.252       .  A
C91         O716   1.270       .  A
C91         C439   1.484       .  S
O92        Cr108   2.042       .  S
O92         C715   1.272   1_554  A
O93        Cr732   1.951       .  S
O93          C94   1.251       .  A
C94          O95   1.271       .  A
C94         C466   1.492       .  S
O95        Cr109   2.050       .  S
O96        Cr109   1.965       .  S
O96          C97   1.260       .  A
C97         C406   1.481       .  S
O98        Cr107   1.962       .  S
O98         C106   1.250       .  A
O99        Cr107   2.024       .  S
O99         C100   1.269       .  A
C100        O101   1.257       .  A
C100        C416   1.488       .  S
O101       Cr108   1.950       .  S
O102       Cr108   2.054       .  S
O102        C103   1.277       .  A
C103        O104   1.258       .  A
C103        C596   1.487       .  S
O104       Cr733   1.943   1_554  S
O105       Cr109   2.049       .  S
O105        C730   1.273       .  A
C106        O729   1.272   1_554  A
C106        C429   1.487       .  S
Cr107       O713   2.039   1_554  S
Cr107       O714   1.941   1_554  S
Cr107       O110   1.764   1_554  S
Cr108       O717   1.951   1_554  S
Cr108       O110   1.762   1_554  S
Cr109       O728   1.955       .  S
Cr109       O734   1.772       .  S
O110       Cr733   1.773       .  S
O111       Cr129   2.020       .  S
O111        C119   1.268       .  A
O112       Cr129   1.949       .  S
O112        C113   1.248       .  A
C113        O114   1.273       .  A
C113        C396   1.483       .  S
O114       Cr130   2.044       .  S
O115       Cr130   1.953       .  S
O115        C116   1.259       .  A
C116        O117   1.278       .  A
C116        C496   1.498       .  S
O117       Cr131   2.059       .  S
O118       Cr131   1.950       .  S
O118        C119   1.257       .  A
C119        C419   1.483       .  S
O120       Cr129   1.930       .  S
O120        C128   1.249       .  A
O121       Cr129   2.037       .  S
O121        C122   1.275       .  A
C122        O123   1.256       .  A
C122        C409   1.481       .  S
O123       Cr130   1.956       .  S
O124       Cr130   2.040       .  S
O124        C125   1.270       .  A
C125        O126   1.251       .  A
C125        C556   1.478       .  S
O126       Cr131   1.949       .  S
O127       Cr131   2.047       .  S
O127        C128   1.273       .  A
C128        C389   1.494       .  S
Cr129       O132   1.766       .  S
Cr130       O132   1.771       .  S
Cr131       O132   1.764       .  S
O133       Cr151   2.035       .  S
O133        C141   1.273       .  A
O134       Cr151   1.934       .  S
O134        C135   1.252       .  A
C135        O136   1.273       .  A
C135        C579   1.484       .  S
O136       Cr152   2.041       .  S
O137       Cr152   1.948       .  S
O137        C138   1.250       .  A
C138        O139   1.271       .  A
C138        C346   1.494       .  S
O139       Cr153   2.058       .  S
O140       Cr153   1.959       .  S
O140        C141   1.259       .  A
C141        C376   1.476       .  S
O142       Cr151   1.945       .  S
O142        C150   1.250       .  A
O143       Cr151   2.026       .  S
O143        C144   1.270       .  A
C144        O145   1.256       .  A
C144        C366   1.478       .  S
O145       Cr152   1.948       .  S
O146       Cr152   2.056       .  S
O146        C147   1.277       .  A
C147        O148   1.254       .  A
C147        C359   1.486       .  S
O148       Cr153   1.941       .  S
O149       Cr153   2.045       .  S
O149        C150   1.273       .  A
C150        C399   1.482       .  S
Cr151       O154   1.762       .  S
Cr152       O154   1.761       .  S
Cr153       O154   1.767       .  S
O155       Cr173   2.026       .  S
O155        C163   1.271       .  A
O156       Cr173   1.943       .  S
O156        C157   1.252       .  A
C157        O158   1.271       .  A
C157        C436   1.492       .  S
O158       Cr174   2.041       .  S
O159       Cr174   1.951       .  S
O159        C160   1.256       .  A
C160        O161   1.273       .  A
C160        C336   1.483       .  S
O161       Cr175   2.049       .  S
O162       Cr175   1.953       .  S
O162        C163   1.258       .  A
C163       C1003   1.475       .  S
O164       Cr173   1.955       .  S
O164        C172   1.253       .  A
O165       Cr173   2.024       .  S
O165        C166   1.269       .  A
C166        O167   1.257       .  A
C166        C369   1.476       .  S
O167       Cr174   1.953       .  S
O168       Cr174   2.040       .  S
O168        C169   1.272       .  A
C169        O170   1.255       .  A
C169        C326   1.484       .  S
O170       Cr175   1.951       .  S
O171       Cr175   2.040       .  S
O171        C172   1.272       .  A
C172        C536   1.490       .  S
Cr173       O176   1.766       .  S
Cr174       O176   1.769       .  S
Cr175       O176   1.768       .  S
O177       Cr195   2.024       .  S
O177        C185   1.270       .  A
O178       Cr195   1.954       .  S
O178        C179   1.252       .  A
C179        O180   1.275       .  A
C179        C426   1.499       .  S
O180       Cr196   2.052       .  S
O181       Cr196   1.953       .  S
O181        C182   1.256       .  A
C182        O183   1.271       .  A
C182        C296   1.490       .  S
O183       Cr197   2.045       .  S
O184       Cr197   1.950       .  S
O184        C185   1.257       .  A
C185        C933   1.478   1_554  S
O186       Cr195   1.947       .  S
O186        C194   1.252       .  A
O187       Cr195   2.031       .  S
O187        C188   1.272       .  A
C188        O189   1.259       .  A
C188        C316   1.481       .  S
O189       Cr196   1.962       .  S
O190       Cr196   2.058       .  S
O190        C191   1.275       .  A
C191        O192   1.254       .  A
C191        C349   1.491       .  S
O192       Cr197   1.948       .  S
O193       Cr197   2.038       .  S
O193        C194   1.270       .  A
C194        C476   1.483       .  S
Cr195       O198   1.767       .  S
Cr196       O198   1.770       .  S
Cr197       O198   1.769       .  S
O199       Cr217   2.039       .  S
O199        C207   1.275       .  A
O200       Cr217   1.946       .  S
O200        C201   1.254       .  A
C201        O202   1.268       .  A
C201        C386   1.485       .  S
O202       Cr218   2.029       .  S
O203       Cr218   1.954       .  S
O203        C204   1.251       .  A
C204        O205   1.271       .  A
C204        C289   1.496       .  S
O205       Cr219   2.050       .  S
O206       Cr219   1.963       .  S
O206        C207   1.260       .  A
C207        C319   1.481       .  S
O208       Cr217   1.962       .  S
O208        C216   1.249       .  A
O209       Cr217   2.023       .  S
O209        C210   1.268       .  A
C210        O211   1.256       .  A
C210        C306   1.485       .  S
O211       Cr218   1.948       .  S
O212       Cr218   2.035       .  S
O212        C213   1.273       .  A
C213        O214   1.261       .  A
C213        C329   1.472       .  S
O214       Cr219   1.956       .  S
O215       Cr219   2.050       .  S
O215        C216   1.273       .  A
C216        C449   1.487       .  S
Cr217       O220   1.770       .  S
Cr218       O220   1.765       .  S
Cr219       O220   1.774       .  S
O221       Cr239   2.027       .  S
O221        C229   1.269       .  A
O222       Cr239   1.951       .  S
O222        C223   1.251       .  A
C223        O848   1.274       .  A
C223        C456   1.486       .  S
O224       Cr240   2.046       .  S
O224        C847   1.273   1_554  A
O225       Cr864   1.952       .  S
O225        C226   1.257       .  A
C226        O227   1.274       .  A
C226        C339   1.493       .  S
O227       Cr241   2.050       .  S
O228       Cr241   1.965       .  S
O228        C229   1.259       .  A
C229        C266   1.488       .  S
O230       Cr863   1.944   1_554  S
O230        C238   1.253       .  A
O231       Cr863   2.030   1_554  S
O231        C232   1.272       .  A
C232        O233   1.257       .  A
C232        C279   1.477       .  S
O233       Cr240   1.957       .  S
O234       Cr240   2.045       .  S
O234        C235   1.271       .  A
C235        O236   1.254       .  A
C235        C299   1.481       .  S
O236       Cr865   1.947   1_554  S
O237       Cr241   2.045       .  S
O237        C862   1.274       .  A
C238        O861   1.274   1_554  A
C238        C569   1.500       .  S
Cr239       O854   1.938       .  S
Cr239       O855   2.035       .  S
Cr239       O242   1.771       .  S
Cr240       O849   1.954   1_554  S
Cr240       O866   1.771       .  S
Cr241       O860   1.960       .  S
Cr241       O242   1.769       .  S
O242       Cr864   1.769       .  S
O243       Cr261   2.031       .  S
O243        C251   1.272       .  A
O244       Cr261   1.970       .  S
O244        C245   1.254       .  A
C245        O246   1.269       .  A
C245        C489   1.484       .  S
O246       Cr262   2.031       .  S
O247       Cr262   1.944       .  S
O247        C248   1.251       .  A
C248        O249   1.270       .  A
C248        C356   1.478       .  S
O249       Cr263   2.042       .  S
O250       Cr263   1.961       .  S
O250        C251   1.259       .  A
C251        C276   1.480       .  S
O252       Cr261   1.965       .  S
O252        C260   1.255       .  A
O253       Cr261   2.038       .  S
O253        C254   1.274       .  A
C254        O255   1.258       .  A
C254        C269   1.488       .  S
O255       Cr262   1.951       .  S
O256       Cr262   2.047       .  S
O256        C257   1.274       .  A
C257        O258   1.259       .  A
C257        C286   1.493       .  S
O258       Cr263   1.961       .  S
O259       Cr263   2.033       .  S
O259        C260   1.271       .  A
C260        C529   1.480       .  S
Cr261       O264   1.768       .  S
Cr262       O264   1.763       .  S
Cr263       O264   1.771       .  S
C265        C266   1.409       .  A
C265        C270   1.414       .  A
C265        F272   1.357       .  S
C266        C267   1.407       .  A
C267        C268   1.393       .  A
C267        F274   1.359       .  S
C268        C269   1.406       .  A
C268        F273   1.359       .  S
C269        C270   1.412       .  A
C270        F271   1.357       .  S
C275        C276   1.409       .  A
C275        C280   1.409       .  A
C275        F282   1.355       .  S
C276        C277   1.402       .  A
C277        C278   1.397       .  A
C277        F284   1.358       .  S
C278        C279   1.407       .  A
C278        F283   1.357       .  S
C279        C280   1.404       .  A
C280        F281   1.357       .  S
C285        C286   1.412       .  A
C285        C290   1.408       .  A
C285        F292   1.357       .  S
C286        C287   1.407       .  A
C287        C288   1.396       .  A
C287        F294   1.359       .  S
C288        C289   1.413       .  A
C288        F293   1.358       .  S
C289        C290   1.412       .  A
C290        F291   1.358       .  S
C295        C296   1.412       .  A
C295        C300   1.390       .  A
C295        F302   1.358       .  S
C296        C297   1.412       .  A
C297        C298   1.407       .  A
C297        F304   1.358       .  S
C298        C299   1.410       .  A
C298        F303   1.358       .  S
C299        C300   1.405       .  A
C300        F301   1.359       .  S
C305        C306   1.406       .  A
C305        C310   1.387       .  A
C305        F312   1.359       .  S
C306        C307   1.413       .  A
C307        C308   1.411       .  A
C307        F314   1.357       .  S
C308        C309   1.408       .  A
C308        F313   1.357       .  S
C309        C809   1.481       .  S
C309        C310   1.407       .  A
C310        F311   1.359       .  S
C315        C316   1.403       .  A
C315        C320   1.401       .  A
C315        F322   1.358       .  S
C316        C317   1.410       .  A
C317        C318   1.408       .  A
C317        F324   1.357       .  S
C318        C319   1.404       .  A
C318        F323   1.357       .  S
C319        C320   1.408       .  A
C320        F321   1.357       .  S
C325        C326   1.409       .  A
C325        C330   1.403       .  A
C325        F332   1.357       .  S
C326        C327   1.413       .  A
C327        C328   1.392       .  A
C327        F334   1.358       .  S
C328        C329   1.401       .  A
C328        F333   1.358       .  S
C329        C330   1.407       .  A
C330        F331   1.357       .  S
C335        C336   1.410       .  A
C335        C340   1.408       .  A
C335        F342   1.358       .  S
C336        C337   1.404       .  A
C337        C338   1.392       .  A
C337        F344   1.359       .  S
C338        C339   1.414       .  A
C338        F343   1.358       .  S
C339        C340   1.412       .  A
C340        F341   1.358       .  S
C345        C346   1.413       .  A
C345        C350   1.409       .  A
C345        F352   1.357       .  S
C346        C347   1.411       .  A
C347        C348   1.393       .  A
C347        F354   1.358       .  S
C348        C349   1.408       .  A
C348        F353   1.358       .  S
C349        C350   1.411       .  A
C350        F351   1.357       .  S
C355        C356   1.405       .  A
C355        C360   1.389       .  A
C355        F362   1.360       .  S
C356        C357   1.409       .  A
C357        C358   1.405       .  A
C357        F364   1.357       .  S
C358        C359   1.410       .  A
C358        F363   1.357       .  S
C359        C360   1.414       .  A
C360        F361   1.359       .  S
C365        C366   1.404       .  A
C365        C370   1.389       .  A
C365        F372   1.359       .  S
C366        C367   1.411       .  A
C367        C368   1.410       .  A
C367        F374   1.357       .  S
C368        C369   1.406       .  A
C368        F373   1.357       .  S
C369        C370   1.405       .  A
C370        F371   1.360       .  S
C375        C376   1.406       .  A
C375        C380   1.397       .  A
C375        F382   1.358       .  S
C376        C377   1.404       .  A
C377        C378   1.408       .  A
C377        F384   1.358       .  S
C378        C379   1.411       .  A
C378        F383   1.356   1_554  S
C379        C787   1.478   1_554  S
C379        C380   1.403       .  A
C380        F381   1.358       .  S
C385        C386   1.411       .  A
C385        C390   1.414   1_655  A
C385        F392   1.357       .  S
C386        C387   1.403       .  A
C387        C388   1.387   1_655  A
C387        F394   1.359       .  S
C388        C389   1.414       .  A
C388        F393   1.359       .  S
C389        C390   1.411       .  A
C390        F391   1.357       .  S
C395        C396   1.399       .  A
C395        C400   1.400       .  A
C395        F402   1.357       .  S
C396        C397   1.416       .  A
C397        C398   1.405       .  A
C397        F404   1.358       .  S
C398        C399   1.401       .  A
C398        F403   1.358       .  S
C399        C400   1.413       .  A
C400        F401   1.358       .  S
C405        C406   1.401       .  A
C405        C410   1.399       .  A
C405        F412   1.358       .  S
C406        C407   1.411       .  A
C407        C408   1.408       .  A
C407        F414   1.356       .  S
C408        C409   1.404       .  A
C408        F413   1.358       .  S
C409        C410   1.409       .  A
C410        F411   1.354       .  S
C415        C416   1.408       .  A
C415        C420   1.388       .  A
C415        F422   1.359       .  S
C416        C417   1.413       .  A
C417        C418   1.410       .  A
C417        F424   1.357       .  S
C418        C419   1.408       .  A
C418        F423   1.357       .  S
C419        C420   1.408       .  A
C420        F421   1.359       .  S
C425        C426   1.418       .  A
C425        C430   1.403       .  A
C425        F432   1.357       .  S
C426        C427   1.405       .  A
C427        C428   1.409   1_655  A
C427        F434   1.357       .  S
C428        C429   1.413       .  A
C428        F433   1.358       .  S
C429        C430   1.399   1_455  A
C430        F431   1.358   1_654  S
C435        C436   1.410       .  A
C435        C440   1.388       .  A
C435        F442   1.359       .  S
C436        C437   1.412       .  A
C437        C438   1.414       .  A
C437        F444   1.357       .  S
C438        C439   1.410       .  A
C438        F443   1.357       .  S
C439        C440   1.404       .  A
C440       F1065   1.359       .  S
F441       C1064   1.359       .  S
C445        C446   1.417       .  A
C445        C450   1.402   1_565  A
C445        F452   1.353       .  S
C446        C447   1.408       .  A
C447        C448   1.412   1_565  A
C447        F454   1.357       .  S
C448        C449   1.413       .  A
C448        F453   1.357       .  S
C449        C450   1.398       .  A
C450        F451   1.358       .  S
C455        C456   1.402       .  A
C455        C460   1.406       .  A
C455        F462   1.358       .  S
C456        C457   1.413       .  A
C457        C458   1.401       .  A
C457       F1088   1.355       .  S
C458        C459   1.399       .  A
C458        F463   1.358       .  S
C459        C460   1.413       .  A
C460        F461   1.357       .  S
F464       C1081   1.355       .  S
C465        C466   1.412       .  A
C465        C470   1.409       .  A
C465       F1096   1.357       .  S
C466        C467   1.409       .  A
C467        C468   1.392       .  A
C467        F474   1.359       .  S
C468        C469   1.412       .  A
C468        F473   1.359       .  S
C469        C470   1.411       .  A
C470       F1095   1.357       .  S
F471       C1094   1.357       .  S
F472       C1089   1.358       .  S
C475        C476   1.408       .  A
C475        C480   1.414   1_545  A
C475        F482   1.357       .  S
C476        C477   1.402       .  A
C477        C478   1.392   1_545  A
C477        F484   1.359       .  S
C478        C479   1.414       .  A
C478        F483   1.358       .  S
C479        C480   1.414       .  A
C480        F481   1.357       .  S
C485        C486   1.404       .  A
C485        C490   1.408       .  A
C485        F492   1.358       .  S
C486        C487   1.413       .  A
C487        C488   1.402       .  A
C487        F494   1.358       .  S
C488        C489   1.400       .  A
C488        F493   1.357       .  S
C489        C490   1.413       .  A
C490        F491   1.358       .  S
C495        C496   1.414       .  A
C495        C500   1.395       .  A
C495        F502   1.359       .  S
C496        C497   1.413       .  A
C497        C498   1.409       .  A
C497        F504   1.357       .  S
C498        C499   1.409       .  A
C498        F503   1.358       .  S
C499        C500   1.406       .  A
C500        F501   1.359       .  S
C505        C506   1.407       .  A
C505        C510   1.413       .  A
C505        F512   1.357       .  S
C506        C507   1.405       .  A
C507        C508   1.390       .  A
C507        F514   1.359       .  S
C508        C509   1.404       .  A
C508        F513   1.359       .  S
C509        C510   1.412       .  A
C510        F511   1.357       .  S
C515        C516   1.405       .  A
C515        C520   1.410       .  A
C515        F522   1.357       .  S
C516        C517   1.407       .  A
C517        C518   1.396       .  A
C517        F524   1.358       .  S
C518        C519   1.402       .  A
C518        F523   1.358       .  S
C519        C699   1.479   1_554  S
C519        C520   1.411       .  A
C520        F521   1.357   1_554  S
C525        C526   1.405       .  A
C525        C530   1.406   1_455  A
C525        F532   1.357       .  S
C526        C527   1.415       .  A
C527        C528   1.401   1_455  A
C527        F534   1.355       .  S
C528        C529   1.399       .  A
C528        F533   1.358       .  S
C529        C530   1.410       .  A
C530        F531   1.358       .  S
C535        C536   1.415       .  A
C535        C540   1.398   1_545  A
C535        F542   1.355       .  S
C536        C537   1.406       .  A
C537        C538   1.407   1_545  A
C537        F544   1.357       .  S
C538        C539   1.410       .  A
C538        F543   1.358       .  S
C539        C540   1.397       .  A
C540        F541   1.358       .  S
C545        C546   1.410       .  A
C545        C550   1.407       .  A
C545        F552   1.357       .  S
C546        C547   1.403       .  A
C547        C548   1.390       .  A
C547        F554   1.359       .  S
C548        C549   1.413       .  A
C548        F553   1.358       .  S
C549        C550   1.412       .  A
C550        F551   1.358       .  S
C555        C556   1.406       .  A
C555        C560   1.393       .  A
C555        F562   1.359       .  S
C556        C557   1.407       .  A
C557        C558   1.402       .  A
C557        F564   1.358       .  S
C558        C559   1.412       .  A
C558        F563   1.357       .  S
C559        C560   1.411       .  A
C560        F561   1.358       .  S
C565        C566   1.408       .  A
C565        C570   1.389   1_455  A
C565        F572   1.359       .  S
C566        C567   1.414       .  A
C567        C568   1.421   1_455  A
C567        F574   1.357       .  S
C568        C569   1.414       .  A
C568        F573   1.357       .  S
C569        C570   1.410       .  A
C570        F571   1.359       .  S
C575        C576   1.409       .  A
C575        C580   1.413   1_565  A
C575        F582   1.357       .  S
C576        C577   1.405       .  A
C577        C578   1.387   1_565  A
C577        F584   1.359       .  S
C578        C579   1.408       .  A
C578        F583   1.359       .  S
C579        C580   1.410       .  A
C580        F581   1.357       .  S
C585        C586   1.408       .  A
C585        C590   1.394       .  A
C585        F592   1.359       .  S
C586        C587   1.410       .  A
C587        C588   1.404       .  A
C587        F594   1.357       .  S
C588        C589   1.410       .  A
C588        F593   1.357       .  S
C589        C590   1.413       .  A
C590        F591   1.359       .  S
C595        C596   1.412       .  A
C595        C600   1.408       .  A
C595        F602   1.358       .  S
C596        C597   1.410       .  A
C597        C598   1.386       .  A
C597       F1228   1.359       .  S
C598        C599   1.407       .  A
C598       F1227   1.359       .  S
C599        C600   1.411       .  A
C600        F601   1.358       .  S
F603       C1222   1.358       .  S
F604       C1221   1.359       .  S
C605        C606   1.403       .  A
C605        C610   1.396       .  A
C605        F612   1.358       .  S
C606        C607   1.410       .  A
C607        C608   1.407       .  A
C607        F614   1.357       .  S
C608        C609   1.404       .  A
C608        F613   1.357       .  S
C609        C633   1.473       .  S
C609        C610   1.406       .  A
C610        F611   1.358       .  S
C615        C616   1.408       .  A
C615        C620   1.390       .  A
C615        F622   1.359       .  S
C616        C617   1.407       .  A
C617        C618   1.411       .  A
C617        F624   1.357       .  S
C618        C619   1.412       .  A
C618        F623   1.357       .  S
C619        C620   1.404       .  A
C620        F621   1.359       .  S
O625       Cr643   2.029       .  S
O625        C633   1.272       .  A
O626       Cr643   1.951       .  S
O626        C627   1.253       .  A
C627        O628   1.268       .  A
C627       C1190   1.476       .  S
O628       Cr644   2.029       .  S
O629       Cr644   1.949       .  S
O629        C630   1.250       .  A
C630        O631   1.271       .  A
C630       C1223   1.493       .  S
O631       Cr645   2.055       .  S
O632       Cr645   1.958       .  S
O632        C633   1.258       .  A
O634       Cr643   1.954       .  S
O634        C642   1.252       .  A
O635       Cr643   2.027       .  S
O635        C636   1.270       .  A
C636        O637   1.258       .  A
C636       C1243   1.482       .  S
O637       Cr644   1.948       .  S
O638       Cr644   2.044       .  S
O638        C639   1.274       .  A
C639        O640   1.256       .  A
C639       C1210   1.486       .  S
O640       Cr645   1.948       .  S
O641       Cr645   2.045       .  S
O641        C642   1.272       .  A
C642       C1200   1.485       .  S
Cr643       O646   1.767       .  S
Cr644       O646   1.762       .  S
Cr645       O646   1.773       .  S
O647       Cr665   2.032       .  S
O647        C655   1.272       .  A
O648       Cr665   1.957       .  S
O648        C649   1.254       .  A
C649        O650   1.274       .  A
C649       C1150   1.484       .  S
O650       Cr666   2.044       .  S
O651       Cr666   1.961       .  S
O651        C652   1.257       .  A
C652        O653   1.272       .  A
C652       C1183   1.493       .  S
O653       Cr667   2.045       .  S
O654       Cr667   1.945       .  S
O654        C655   1.257       .  A
C655       C1240   1.483       .  S
O656       Cr665   1.967       .  S
O656        C664   1.253       .  A
O657       Cr665   2.024       .  S
O657        C658   1.270       .  A
C658        O659   1.259       .  A
C658       C1230   1.477       .  S
O659       Cr666   1.958       .  S
O660       Cr666   2.054       .  S
O660        C661   1.274       .  A
C661        O662   1.253       .  A
C661       C1170   1.485       .  S
O662       Cr667   1.943       .  S
O663       Cr667   2.037       .  S
O663        C664   1.270       .  A
C664       C1163   1.486       .  S
Cr665       O668   1.768       .  S
Cr666       O668   1.769       .  S
Cr667       O668   1.765       .  S
O669       Cr687   2.027       .  S
O669        C677   1.271       .  A
O670       Cr687   1.955       .  S
O670        C671   1.255       .  A
C671        O672   1.274       .  A
C671       C1103   1.504       .  S
O672       Cr688   2.044       .  S
O673       Cr688   1.948       .  S
O673        C674   1.251       .  A
C674        O675   1.267       .  A
C674       C1213   1.478       .  S
O675       Cr689   2.034       .  S
O676       Cr689   1.951       .  S
O676        C677   1.258       .  A
C677       C1140   1.474       .  S
O678       Cr687   1.963       .  S
O678        C686   1.252       .  A
O679       Cr687   2.016       .  S
O679        C680   1.267       .  A
C680        O681   1.256       .  A
C680       C1133   1.471       .  S
O681       Cr688   1.945       .  S
O682       Cr688   2.057       .  S
O682        C683   1.279       .  A
C683        O684   1.256       .  A
C683       C1123   1.490       .  S
O684       Cr689   1.946       .  S
O685       Cr689   2.032       .  S
O685        C686   1.269       .  A
C686       C1110   1.482       .  S
Cr687       O690   1.767       .  S
Cr688       O690   1.762       .  S
Cr689       O690   1.771       .  S
O691       Cr709   2.021       .  S
O691        C699   1.269       .  A
O692       Cr709   1.963       .  S
O692        C693   1.253       .  A
C693        O694   1.270       .  A
C693       C1083   1.480       .  S
O694       Cr710   2.032       .  S
O695       Cr710   1.942       .  S
O695        C696   1.253       .  A
C696        O697   1.278       .  A
C696       C1093   1.492       .  S
O697       Cr711   2.066       .  S
O698       Cr711   1.962       .  S
O698        C699   1.259       .  A
O700       Cr709   1.962       .  S
O700        C708   1.256       .  A
O701       Cr709   2.027       .  S
O701        C702   1.271       .  A
C702        O703   1.257       .  A
C702       C1130   1.470       .  S
O703       Cr710   1.947       .  S
O704       Cr710   2.046       .  S
O704        C705   1.270       .  A
C705        O706   1.253       .  A
C705       C1173   1.490       .  S
O706       Cr711   1.952       .  S
O707       Cr711   2.046       .  S
O707        C708   1.276       .  A
C708       C1070   1.503       .  S
Cr709       O712   1.767       .  S
Cr710       O712   1.769       .  S
Cr711       O712   1.763       .  S
O713        C721   1.276       .  A
O714        C715   1.253       .  A
C715       C1063   1.491       .  S
O716       Cr732   2.036       .  S
O717        C718   1.251       .  A
C718        O719   1.269       .  A
C718       C1090   1.492       .  S
O719       Cr733   2.050       .  S
O720       Cr733   1.954       .  S
O720        C721   1.258       .  A
C721       C1030   1.479       .  S
O722       Cr731   1.960       .  S
O722        C730   1.250       .  A
O723       Cr731   2.018       .  S
O723        C724   1.268       .  A
C724        O725   1.258       .  A
C724       C1040   1.484       .  S
O725       Cr732   1.953       .  S
O726       Cr732   2.048       .  S
O726        C727   1.275       .  A
C727        O728   1.260       .  A
C727       C1220   1.484       .  S
O729       Cr733   2.048       .  S
C730       C1053   1.487       .  S
Cr731       O734   1.768       .  S
Cr732       O734   1.765       .  S
O735       Cr753   2.025       .  S
O735        C743   1.270       .  A
O736       Cr753   1.958       .  S
O736        C737   1.251       .  A
C737        O738   1.272       .  A
C737       C1020   1.497       .  S
O738       Cr754   2.047       .  S
O739       Cr754   1.950       .  S
O739        C740   1.258       .  A
C740        O741   1.273       .  A
C740       C1120   1.489       .  S
O741       Cr755   2.048       .  S
O742       Cr755   1.947       .  S
O742        C743   1.256       .  A
C743       C1043   1.481       .  S
O744       Cr753   1.940       .  S
O744        C752   1.251       .  A
O745       Cr753   2.035       .  S
O745        C746   1.275       .  A
C746        O747   1.258       .  A
C746       C1033   1.482       .  S
O747       Cr754   1.957       .  S
O748       Cr754   2.047       .  S
O748        C749   1.273       .  A
C749        O750   1.254       .  A
C749       C1180   1.481       .  S
O750       Cr755   1.953       .  S
O751       Cr755   2.041       .  S
O751        C752   1.270       .  A
C752       C1013   1.494       .  S
Cr753       O756   1.768       .  S
Cr754       O756   1.772       .  S
Cr755       O756   1.774       .  S
O757       Cr775   2.024       .  S
O757        C765   1.271       .  A
O758       Cr775   1.939       .  S
O758        C759   1.253       .  A
C759        O760   1.277       .  A
C759       C1203   1.501       .  S
O760       Cr776   2.054       .  S
O761       Cr776   1.953       .  S
O761        C762   1.250       .  A
C762        O763   1.271       .  A
C762        C970   1.500       .  S
O763       Cr777   2.062       .  S
O764       Cr777   1.958       .  S
O764        C765   1.259       .  A
C765       C1000   1.472       .  S
O766       Cr775   1.961       .  S
O766        C774   1.251       .  A
O767       Cr775   2.010       .  S
O767        C768   1.265       .  A
C768        O769   1.258       .  A
C768        C990   1.476       .  S
O769       Cr776   1.956       .  S
O770       Cr776   2.071       .  S
O770        C771   1.280       .  A
C771        O772   1.253       .  A
C771        C983   1.492       .  S
O772       Cr777   1.940       .  S
O773       Cr777   2.049       .  S
O773        C774   1.274       .  A
C774       C1023   1.486       .  S
Cr775       O778   1.765       .  S
Cr776       O778   1.761       .  S
Cr777       O778   1.767       .  S
O779       Cr797   2.033       .  S
O779        C787   1.274       .  A
O780       Cr797   1.950       .  S
O780        C781   1.253       .  A
C781        O782   1.270       .  A
C781       C1060   1.493       .  S
O782       Cr798   2.034       .  S
O783       Cr798   1.949       .  S
O783        C784   1.253       .  A
C784        O785   1.271       .  A
C784        C960   1.484       .  S
O785       Cr799   2.045       .  S
O786       Cr799   1.955       .  S
O786        C787   1.258       .  A
O788       Cr797   1.969       .  S
O788        C796   1.253       .  A
O789       Cr797   2.023       .  S
O789        C790   1.269       .  A
C790        O791   1.255       .  A
C790        C993   1.473       .  S
O791       Cr798   1.943       .  S
O792       Cr798   2.046       .  S
O792        C793   1.274       .  A
C793        O794   1.258       .  A
C793        C950   1.490       .  S
O794       Cr799   1.952       .  S
O795       Cr799   2.047       .  S
O795        C796   1.271       .  A
C796       C1160   1.496       .  S
Cr797       O800   1.769       .  S
Cr798       O800   1.772       .  S
Cr799       O800   1.771       .  S
O801       Cr819   2.024       .  S
O801        C809   1.270       .  A
O802       Cr819   1.954       .  S
O802        C803   1.252       .  A
C803        O804   1.275       .  A
C803       C1050   1.500       .  S
O804       Cr820   2.054       .  S
O805       Cr820   1.957       .  S
O805        C806   1.255       .  A
C806        O807   1.275       .  A
C806        C920   1.498       .  S
O807       Cr821   2.056       .  S
O808       Cr821   1.950       .  S
O808        C809   1.258       .  A
O810       Cr819   1.956       .  S
O810        C818   1.253       .  A
O811       Cr819   2.024       .  S
O811        C812   1.270       .  A
C812        O813   1.259       .  A
C812        C940   1.476       .  S
O813       Cr820   1.957       .  S
O814       Cr820   2.066       .  S
O814        C815   1.276       .  A
C815        O816   1.254       .  A
C815        C973   1.491       .  S
O816       Cr821   1.950       .  S
O817       Cr821   2.044       .  S
O817        C818   1.272       .  A
C818       C1100   1.486       .  S
Cr819       O822   1.772       .  S
Cr820       O822   1.772       .  S
Cr821       O822   1.768       .  S
O823       Cr841   2.031       .  S
O823        C831   1.272       .  A
O824       Cr841   1.940       .  S
O824        C825   1.252       .  A
C825        O826   1.272       .  A
C825       C1010   1.489       .  S
O826       Cr842   2.040       .  S
O827       Cr842   1.949       .  S
O827        C828   1.248       .  A
C828        O829   1.268       .  A
C828        C913   1.481       .  S
O829       Cr843   2.038       .  S
O830       Cr843   1.951       .  S
O830        C831   1.257       .  A
C831        C943   1.473       .  S
O832       Cr841   1.961       .  S
O832        C840   1.251       .  A
O833       Cr841   2.015       .  S
O833        C834   1.267       .  A
C834        O835   1.258       .  A
C834        C930   1.480       .  S
O835       Cr842   1.956       .  S
O836       Cr842   2.054       .  S
O836        C837   1.278       .  A
C837        O838   1.260       .  A
C837        C953   1.489       .  S
O838       Cr843   1.946       .  S
O839       Cr843   2.045       .  S
O839        C840   1.272       .  A
C840       C1073   1.480       .  S
Cr841       O844   1.764       .  S
Cr842       O844   1.763       .  S
Cr843       O844   1.772       .  S
O845       Cr863   2.020       .  S
O845        C853   1.268       .  A
O846       Cr863   1.955       .  S
O846        C847   1.251       .  A
C847       C1080   1.488       .  S
O848       Cr864   2.050       .  S
O849        C850   1.257       .  A
C850        O851   1.276       .  A
C850        C963   1.492       .  S
O851       Cr865   2.050       .  S
O852       Cr865   1.953       .  S
O852        C853   1.257       .  A
C853        C890   1.480       .  S
O854        C862   1.251       .  A
O855        C856   1.272       .  A
C856        O857   1.256       .  A
C856        C903   1.477       .  S
O857       Cr864   1.953       .  S
O858       Cr864   2.049       .  S
O858        C859   1.274       .  A
C859        O860   1.256       .  A
C859        C923   1.488       .  S
O861       Cr865   2.051       .  S
C862       C1193   1.500       .  S
Cr863       O866   1.767   1_556  S
Cr865       O866   1.766   1_556  S
O867       Cr885   2.025       .  S
O867        C875   1.270       .  A
O868       Cr885   1.964       .  S
O868        C869   1.255       .  A
C869        O870   1.268       .  A
C869       C1113   1.477       .  S
O870       Cr886   2.027       .  S
O871       Cr886   1.950       .  S
O871        C872   1.254       .  A
C872        O873   1.270       .  A
C872        C980   1.479       .  S
O873       Cr887   2.044       .  S
O874       Cr887   1.960       .  S
O874        C875   1.259       .  A
C875        C900   1.477       .  S
O876       Cr885   1.967       .  S
O876        C884   1.256       .  A
O877       Cr885   2.024       .  S
O877        C878   1.269       .  A
C878        O879   1.258       .  A
C878        C893   1.478       .  S
O879       Cr886   1.949       .  S
O880       Cr886   2.035       .  S
O880        C881   1.271       .  A
C881        O882   1.256       .  A
C881        C910   1.486       .  S
O882       Cr887   1.954       .  S
O883       Cr887   2.030       .  S
O883        C884   1.271       .  A
C884       C1153   1.487       .  S
Cr885       O888   1.768       .  S
Cr886       O888   1.762       .  S
Cr887       O888   1.768       .  S
C889        C890   1.407       .  A
C889        C894   1.410       .  A
C889        F896   1.357       .  S
C890        C891   1.408       .  A
C891        C892   1.388       .  A
C891        F898   1.359       .  S
C892        C893   1.402       .  A
C892        F897   1.359       .  S
C893        C894   1.410       .  A
C894        F895   1.357       .  S
C899        C900   1.411       .  A
C899        C904   1.410       .  A
C899        F906   1.357       .  S
C900        C901   1.400       .  A
C901        C902   1.393       .  A
C901        F908   1.358       .  S
C902        C903   1.406       .  A
C902        F907   1.357       .  S
C903        C904   1.406       .  A
C904        F905   1.358       .  S
C909        C910   1.411       .  A
C909        C914   1.401       .  A
C909        F916   1.357       .  S
C910        C911   1.411       .  A
C911        C912   1.393       .  A
C911        F918   1.359       .  S
C912        C913   1.409       .  A
C912        F917   1.359       .  S
C913        C914   1.407       .  A
C914        F915   1.357       .  S
C919        C920   1.416       .  A
C919        C924   1.399       .  A
C919        F926   1.358       .  S
C920        C921   1.410       .  A
C921        C922   1.406       .  A
C921        F928   1.357       .  S
C922        C923   1.410       .  A
C922        F927   1.357       .  S
C923        C924   1.406       .  A
C924        F925   1.359       .  S
C929        C930   1.405       .  A
C929        C934   1.391       .  A
C929        F936   1.359       .  S
C930        C931   1.411       .  A
C931        C932   1.407       .  A
C931        F938   1.357       .  S
C932        C933   1.405       .  A
C932        F937   1.357       .  S
C933        C934   1.408       .  A
C934        F935   1.359       .  S
C939        C940   1.402       .  A
C939        C944   1.394       .  A
C939        F946   1.359       .  S
C940        C941   1.410       .  A
C941        C942   1.408       .  A
C941        F948   1.357       .  S
C942        C943   1.403       .  A
C942        F947   1.357       .  S
C943        C944   1.407       .  A
C944        F945   1.358       .  S
C949        C950   1.411       .  A
C949        C954   1.408       .  A
C949        F956   1.358       .  S
C950        C951   1.410       .  A
C951        C952   1.391       .  A
C951        F958   1.359       .  S
C952        C953   1.409       .  A
C952        F957   1.359       .  S
C953        C954   1.411       .  A
C954        F955   1.358       .  S
C959        C960   1.409       .  A
C959        C964   1.406       .  A
C959        F966   1.358       .  S
C960        C961   1.406       .  A
C961        C962   1.393       .  A
C961        F968   1.359       .  S
C962        C963   1.413       .  A
C962        F967   1.358       .  S
C963        C964   1.411       .  A
C964        F965   1.357       .  S
C969        C970   1.413       .  A
C969        C974   1.412       .  A
C969        F976   1.357       .  S
C970        C971   1.415       .  A
C971        C972   1.396       .  A
C971        F978   1.358       .  S
C972        C973   1.406       .  A
C972        F977   1.359       .  S
C973        C974   1.411       .  A
C974        F975   1.357       .  S
C979        C980   1.400       .  A
C979        C984   1.390       .  A
C979        F986   1.359       .  S
C980        C981   1.410       .  A
C981        C982   1.408       .  A
C981        F988   1.356       .  S
C982        C983   1.410       .  A
C982        F987   1.357       .  S
C983        C984   1.418       .  A
C984        F985   1.359       .  S
C989        C990   1.402       .  A
C989        C994   1.387       .  A
C989        F996   1.359       .  S
C990        C991   1.413       .  A
C991        C992   1.409       .  A
C991        F998   1.357       .  S
C992        C993   1.404       .  A
C992        F997   1.357       .  S
C993        C994   1.406       .  A
C994        F995   1.359       .  S
C999       C1000   1.406       .  A
C999       C1004   1.394       .  A
C999       F1006   1.358       .  S
C1000      C1001   1.402       .  A
C1001      C1002   1.406       .  A
C1001      F1008   1.357       .  S
C1002      C1003   1.409       .  A
C1002      F1007   1.354       .  S
C1003      C1004   1.402       .  A
C1004      F1005   1.358       .  S
C1009      C1010   1.411       .  A
C1009      C1014   1.416   1_655  A
C1009      F1016   1.357       .  S
C1010      C1011   1.406       .  A
C1011      C1012   1.388   1_655  A
C1011      F1018   1.359       .  S
C1012      C1013   1.410       .  A
C1012      F1017   1.359       .  S
C1013      C1014   1.412       .  A
C1014      F1015   1.357       .  S
C1019      C1020   1.405       .  A
C1019      C1024   1.409       .  A
C1019      F1026   1.357       .  S
C1020      C1021   1.417       .  A
C1021      C1022   1.404       .  A
C1021      F1028   1.357       .  S
C1022      C1023   1.400       .  A
C1022      F1027   1.358       .  S
C1023      C1024   1.413       .  A
C1024      F1025   1.358       .  S
C1029      C1030   1.404       .  A
C1029      C1034   1.408       .  A
C1029      F1036   1.358       .  S
C1030      C1031   1.408       .  A
C1031      C1032   1.399       .  A
C1031      F1038   1.357       .  S
C1032      C1033   1.403       .  A
C1032      F1037   1.358       .  S
C1033      C1034   1.411       .  A
C1034      F1035   1.355       .  S
C1039      C1040   1.405       .  A
C1039      C1044   1.388       .  A
C1039      F1046   1.359       .  S
C1040      C1041   1.413       .  A
C1041      C1042   1.410       .  A
C1041      F1048   1.357       .  S
C1042      C1043   1.406       .  A
C1042      F1047   1.357       .  S
C1043      C1044   1.408       .  A
C1044      F1045   1.359       .  S
C1049      C1050   1.418       .  A
C1049      C1054   1.403   1_655  A
C1049      F1056   1.357       .  S
C1050      C1051   1.407       .  A
C1051      C1052   1.410   1_655  A
C1051      F1058   1.357       .  S
C1052      C1053   1.413       .  A
C1052      F1057   1.358       .  S
C1053      C1054   1.399       .  A
C1054      F1055   1.358       .  S
C1059      C1060   1.409       .  A
C1059      C1064   1.390       .  A
C1059      F1066   1.359       .  S
C1060      C1061   1.413       .  A
C1061      C1062   1.415       .  A
C1061      F1068   1.357       .  S
C1062      C1063   1.410       .  A
C1062      F1067   1.357       .  S
C1063      C1064   1.408       .  A
C1069      C1070   1.418       .  A
C1069      C1074   1.401   1_565  A
C1069      F1076   1.355       .  S
C1070      C1071   1.409       .  A
C1071      C1072   1.410   1_565  A
C1071      F1078   1.357       .  S
C1072      C1073   1.410       .  A
C1072      F1077   1.358       .  S
C1073      C1074   1.398       .  A
C1074      F1075   1.358       .  S
C1079      C1080   1.403       .  A
C1079      C1084   1.405       .  A
C1079      F1086   1.357   1_556  S
C1080      C1081   1.414       .  A
C1081      C1082   1.401       .  A
C1082      C1083   1.399       .  A
C1082      F1087   1.358       .  S
C1083      C1084   1.411       .  A
C1084      F1085   1.358       .  S
C1089      C1090   1.413       .  A
C1089      C1094   1.410       .  A
C1090      C1091   1.409       .  A
C1091      C1092   1.391       .  A
C1091      F1098   1.359       .  S
C1092      C1093   1.411       .  A
C1092      F1097   1.359       .  S
C1093      C1094   1.411       .  A
C1099      C1100   1.409       .  A
C1099      C1104   1.415   1_545  A
C1099      F1106   1.357       .  S
C1100      C1101   1.402       .  A
C1101      C1102   1.395   1_545  A
C1101      F1108   1.359       .  S
C1102      C1103   1.416       .  A
C1102      F1107   1.358       .  S
C1103      C1104   1.414       .  A
C1104      F1105   1.357       .  S
C1109      C1110   1.402       .  A
C1109      C1114   1.403       .  A
C1109      F1116   1.357       .  S
C1110      C1111   1.412       .  A
C1111      C1112   1.402       .  A
C1111      F1118   1.358       .  S
C1112      C1113   1.400       .  A
C1112      F1117   1.358       .  S
C1113      C1114   1.409       .  A
C1114      F1115   1.358       .  S
C1119      C1120   1.408       .  A
C1119      C1124   1.390       .  A
C1119      F1126   1.359       .  S
C1120      C1121   1.412       .  A
C1121      C1122   1.408       .  A
C1121      F1128   1.357       .  S
C1122      C1123   1.410       .  A
C1122      F1127   1.358       .  S
C1123      C1124   1.412       .  A
C1124      F1125   1.359       .  S
C1129      C1130   1.405       .  A
C1129      C1134   1.407       .  A
C1129      F1136   1.357       .  S
C1130      C1131   1.405       .  A
C1131      C1132   1.388       .  A
C1131      F1138   1.359       .  S
C1132      C1133   1.402       .  A
C1132      F1137   1.359       .  S
C1133      C1134   1.410       .  A
C1134      F1135   1.357       .  S
C1139      C1140   1.404       .  A
C1139      C1144   1.409       .  A
C1139      F1146   1.357       .  S
C1140      C1141   1.406       .  A
C1141      C1142   1.393       .  A
C1141      F1148   1.359       .  S
C1142      C1143   1.404       .  A
C1142      F1147   1.359       .  S
C1143      C1144   1.411       .  A
C1144      F1145   1.357       .  S
C1149      C1150   1.402   1_655  A
C1149      C1154   1.405       .  A
C1149      F1156   1.357       .  S
C1150      C1151   1.411       .  A
C1151      C1152   1.402   1_455  A
C1151      F1158   1.355       .  S
C1152      C1153   1.402       .  A
C1152      F1157   1.358       .  S
C1153      C1154   1.414       .  A
C1154      F1155   1.357       .  S
C1159      C1160   1.414       .  A
C1159      C1164   1.404   1_545  A
C1159      F1166   1.353       .  S
C1160      C1161   1.406   1_545  A
C1161      C1162   1.409       .  A
C1161      F1168   1.357   1_565  S
C1162      C1163   1.412       .  A
C1162      F1167   1.358       .  S
C1163      C1164   1.399       .  A
C1164      F1165   1.358       .  S
C1169      C1170   1.410       .  A
C1169      C1174   1.407       .  A
C1169      F1176   1.358       .  S
C1170      C1171   1.408       .  A
C1171      C1172   1.391       .  A
C1171      F1178   1.359       .  S
C1172      C1173   1.411       .  A
C1172      F1177   1.359       .  S
C1173      C1174   1.412       .  A
C1174      F1175   1.358       .  S
C1179      C1180   1.404       .  A
C1179      C1184   1.396       .  A
C1179      F1186   1.359       .  S
C1180      C1181   1.408       .  A
C1181      C1182   1.406       .  A
C1181      F1188   1.357       .  S
C1182      C1183   1.412       .  A
C1182      F1187   1.357       .  S
C1183      C1184   1.413       .  A
C1184      F1185   1.358       .  S
C1189      C1190   1.398       .  A
C1189      C1194   1.391   1_455  A
C1189      F1196   1.359       .  S
C1190      C1191   1.408       .  A
C1191      C1192   1.413   1_455  A
C1191      F1198   1.357       .  S
C1192      C1193   1.412       .  A
C1192      F1197   1.357       .  S
C1193      C1194   1.419       .  A
C1194      F1195   1.359       .  S
C1199      C1200   1.410       .  A
C1199      C1204   1.417   1_565  A
C1199      F1206   1.357       .  S
C1200      C1201   1.400       .  A
C1201      C1202   1.392   1_565  A
C1201      F1208   1.359       .  S
C1202      C1203   1.416       .  A
C1202      F1207   1.359       .  S
C1203      C1204   1.413       .  A
C1204      F1205   1.357       .  S
C1209      C1210   1.412       .  A
C1209      C1214   1.390       .  A
C1209      F1216   1.358       .  S
C1210      C1211   1.410       .  A
C1211      C1212   1.403       .  A
C1211      F1218   1.358       .  S
C1212      C1213   1.409       .  A
C1212      F1217   1.358       .  S
C1213      C1214   1.405       .  A
C1214      F1215   1.359       .  S
C1219      C1220   1.411       .  A
C1219      C1224   1.408       .  A
C1219      F1226   1.356       .  S
C1220      C1221   1.403       .  A
C1221      C1222   1.392       .  A
C1222      C1223   1.415       .  A
C1223      C1224   1.411       .  A
C1224      F1225   1.358       .  S
C1229      C1230   1.401       .  A
C1229      C1234   1.394       .  A
C1229      F1236   1.358       .  S
C1230      C1231   1.410       .  A
C1231      C1232   1.409       .  A
C1231      F1238   1.357       .  S
C1232      C1233   1.405       .  A
C1232      F1237   1.357       .  S
C1233      C1234   1.406       .  A
C1234      F1235   1.357   1_556  S
C1239      C1240   1.409       .  A
C1239      C1244   1.388       .  A
C1239      F1246   1.360       .  S
C1240      C1241   1.407       .  A
C1241      C1242   1.411       .  A
C1241      F1248   1.357       .  S
C1242      C1243   1.411       .  A
C1242      F1247   1.357       .  S
C1243      C1244   1.404       .  A
C1244      F1245   1.359       .  S
