geometry optimzed in LAMMPS
_audit_creation_date              2020-12-01 
_audit_creation_method            'lammps2cif' 
_symmetry_space_group_name_H-M    'P1' 
_symmetry_Int_Tables_number       1 
_symmetry_cell_setting            triclinic 
loop_ 
_symmetry_equiv_pos_as_xyz 
  x,y,z 
_cell_length_a                    52.13223502 
_cell_length_b                    52.34950533546397 
_cell_length_c                    52.94455231871034 
_cell_angle_alpha                 91.18073724836142 
_cell_angle_beta                  89.78156620035487 
_cell_angle_gamma                 91.12849204243106 
loop_ 
_atom_site_label 
_atom_site_type_symbol 
_atom_site_fract_x 
_atom_site_fract_y 
_atom_site_fract_z 
_atom_site_charge 
C1          C  0.53985780  0.55830780  0.24369548     0.03000
C2          C  0.52649993  0.57908065  0.25435698    -0.13100
C3          C  0.53066455  0.58678081  0.27959542     0.00500
C4          C  0.54885979  0.57400700  0.29382884    -0.11600
C5          C  0.56213847  0.55319550  0.28367142     0.03000
C6          C  0.55753565  0.54533812  0.25857844    -0.11100
H7          H  0.51257865  0.58892008  0.24316626     0.08600
H8          H  0.55239504  0.57999606  0.31324360     0.06100
H9          H  0.56760553  0.52909363  0.25070106     0.06000
C10         C  0.39389728  0.50102373  0.71088298     0.03000
C11         C  0.40764550  0.48168188  0.69833010    -0.13100
C12         C  0.40147064  0.47430624  0.67345321     0.00500
C13         C  0.38116279  0.48612099  0.66127321    -0.11600
C14         C  0.36722478  0.50545635  0.67346479     0.03000
C15         C  0.37371691  0.51282757  0.69830486    -0.11100
H16         H  0.42330604  0.47255354  0.70779276     0.08600
H17         H  0.37668405  0.48068921  0.64189827     0.06100
H18         H  0.36324958  0.52795703  0.70775328     0.06000
C19         C  0.73351620  0.61042917  0.90756454     0.03000
C20         C  0.74610803  0.59663274  0.88830788    -0.13100
C21         C  0.77244126  0.60051557  0.88388824     0.00500
C22         C  0.78597262  0.61906787  0.89832208    -0.11600
C23         C  0.77373510  0.63296131  0.91766166     0.03000
C24         C  0.74749059  0.62863638  0.92210932    -0.11100
H25         H  0.73579204  0.58171409  0.87784346     0.08600
H26         H  0.80640144  0.62184370  0.89528787     0.06100
H27         H  0.73803291  0.63929383  0.93710433     0.06000
C28         C  0.43787461  0.79569960  0.90737434     0.03000
C29         C  0.41975431  0.80867884  0.92236426    -0.13100
C30         C  0.41700739  0.83517699  0.92080790     0.00500
C31         C  0.43293954  0.84883066  0.90427020    -0.11600
C32         C  0.45152584  0.83645774  0.88945242     0.03000
C33         C  0.45367995  0.80977851  0.89078589    -0.11100
H34         H  0.40822830  0.79822313  0.93588913     0.08600
H35         H  0.43074383  0.86927541  0.90269107     0.06100
H36         H  0.46787866  0.80013077  0.87927690     0.06000
C37         C  0.21280515  0.42621302  0.02611275     0.03000
C38         C  0.19864654  0.40963555  0.00991797    -0.13100
C39         C  0.17194536  0.40664880  0.01271658     0.00500
C40         C  0.15949264  0.41978024  0.03247574    -0.11600
C41         C  0.17329254  0.43664122  0.04849176     0.03000
C42         C  0.19979363  0.43990556  0.04512866    -0.11100
H43         H  0.20832721  0.39893677  0.99511408     0.08600
H44         H  0.13884095  0.41803271  0.03452833     0.06100
H45         H  0.21015712  0.45350568  0.05716950     0.06000
C46         C  0.52919340  0.25703187  0.05129309     0.03000
C47         C  0.54993744  0.24628170  0.03830048    -0.13100
C48         C  0.55683688  0.22097675  0.04217836     0.00500
C49         C  0.54323697  0.20642028  0.05995403    -0.11600
C50         C  0.52253951  0.21691101  0.07354560     0.03000
C51         C  0.51581702  0.24237512  0.06914572    -0.11100
H52         H  0.56077772  0.25763374  0.02493168     0.08600
H53         H  0.54804882  0.18657731  0.06227964     0.06100
H54         H  0.49986362  0.25070922  0.07928359     0.06000
Zr55       Zr  0.45793633  0.49459245  0.01517378     2.17500
O56         O  0.43790804  0.48738409  0.05625015    -0.51400
O57         O  0.47286646  0.45087855  0.01731914    -0.74600
O58         O  0.41437261  0.47654018  0.01258522    -0.81400
O59         O  0.51577877  0.52772998  0.04677985    -0.83200
O60         O  0.40000017  0.48208801  0.97272318    -0.78800
O61         O  0.47915617  0.50516527  0.05515766    -0.90400
O62         O  0.49617990  0.44208531  0.98203090    -0.76400
O63         O  0.45674870  0.47866346  0.97266858    -0.85900
O64         O  0.50113745  0.49514466  0.00009816    -0.85600
O65         O  0.43086884  0.52346782  0.99309129    -0.72300
O66         O  0.47205613  0.53842601  0.01839383    -0.84500
Zr67       Zr  0.48807025  0.55212981  0.93740932     2.26400
Zr68       Zr  0.43100269  0.50780954  0.95020172     2.06300
Zr69       Zr  0.51502692  0.53888501  0.00261593     2.10000
Zr70       Zr  0.49966739  0.48006725  0.95735379     1.78800
O71         O  0.52343561  0.57863662  0.02606797    -0.93300
O72         O  0.48174332  0.44783941  0.92818928    -0.41100
O73         O  0.51491960  0.52343600  0.95970948    -0.77700
O74         O  0.47387006  0.50817357  0.93392011    -0.96400
O75         O  0.44494536  0.55155630  0.95241579    -0.89700
O76         O  0.48932106  0.56799647  0.97993596    -0.92500
C77         C  0.48593447  0.43580347  0.00307352     1.01200
C78         C  0.50019840  0.51649652  0.06193507     1.14100
C79         C  0.39732744  0.47386469  0.99521858     1.04900
O80         O  0.42311446  0.47017135  0.92332239    -0.94700
O81         O  0.42801024  0.52188222  0.90719204    -0.90400
O82         O  0.46457843  0.54422780  0.89801235    -0.83600
C83         C  0.44297827  0.53359817  0.89182161     1.11600
O84         O  0.41993170  0.57081995  0.03299288    -0.96700
Zr85       Zr  0.44620507  0.56682544  0.99496468     1.88900
O86         O  0.47598157  0.59692039  0.93692684    -0.73300
O87         O  0.38841917  0.52454438  0.94293361    -0.52600
O88         O  0.40179031  0.57683484  0.98579540    -0.97300
O89         O  0.46274008  0.59980102  0.02411708    -0.54500
O90         O  0.44784689  0.60427297  0.96902024    -0.73800
C91         C  0.46046664  0.61119234  0.94941844     0.98500
O92         O  0.50683985  0.56090534  0.89608059    -0.62700
O93         O  0.55714020  0.52188832  0.01173086    -0.57500
O94         O  0.53344689  0.56467820  0.93904575    -0.94100
O95         O  0.54840113  0.56000568  0.97882224    -0.92600
O96         O  0.54383428  0.46755822  0.96397587    -0.92900
O97         O  0.52533506  0.47626345  0.91896158    -0.91700
C98         C  0.55122890  0.56652012  0.95577387     1.17400
H99         H  0.51190687  0.48471174  0.01029537     0.33300
H100        H  0.47414109  0.50205578  0.91659736     0.44100
H101        H  0.49679566  0.58500890  0.98088833     0.37700
H102        H  0.41367779  0.52325033  0.99997069     0.34200
H103        H  0.49516891  0.43478900  0.92648349     0.25900
H104        H  0.37882857  0.51034741  0.93437096     0.31900
H105        H  0.40049895  0.57577136  0.96714998     0.37800
H106        H  0.54944535  0.47729040  0.97925858     0.32200
H107        H  0.56410008  0.53307951  0.02547565     0.31100
H108        H  0.54161678  0.57771302  0.03124255     0.32800
H109        H  0.47614267  0.60919987  0.01457598     0.31800
H110        H  0.53264405  0.49363200  0.91645143     0.35800
H111        H  0.51423040  0.57845864  0.89733762     0.28500
H112        H  0.43286999  0.46904507  0.05637264     0.32700
H113        H  0.41399283  0.58867939  0.03343094     0.35600
H114        H  0.55374067  0.50527645  0.01981834     0.28200
H115        H  0.52174601  0.54955931  0.89428209     0.41100
H116        H  0.42291950  0.45559685  0.93494894     0.31100
H117        H  0.46786886  0.43924742  0.93782924     0.38700
H118        H  0.47229598  0.59036539  0.03695692     0.30600
H119        H  0.38041514  0.52607588  0.95987238     0.30700
H120        H  0.42157793  0.49673552  0.05618038     0.30900
C121        C  0.50637460  0.30048155  0.55515163     0.03000
C122        C  0.52925462  0.30958941  0.54420475    -0.13100
C123        C  0.53776693  0.33480914  0.54856065     0.00500
C124        C  0.52321553  0.35097462  0.56409414    -0.11600
C125        C  0.50012256  0.34234324  0.57498133     0.03000
C126        C  0.49198410  0.31685883  0.57086908    -0.11100
H127        H  0.54047110  0.29699907  0.53220652     0.08600
H128        H  0.52937896  0.37071508  0.56696614     0.06100
H129        H  0.47392599  0.31019081  0.57879284     0.06000
C130        C  0.43953099  0.76524258  0.40171858     0.03000
C131        C  0.45086326  0.74925028  0.38338247    -0.13100
C132        C  0.44074934  0.72455118  0.37878836     0.00500
C133        C  0.41843750  0.71667470  0.39153083    -0.11600
C134        C  0.40695098  0.73249635  0.40975677     0.03000
C135        C  0.41770673  0.75671823  0.41496210    -0.11100
H136        H  0.46833185  0.75541353  0.37395004     0.08600
H137        H  0.41063710  0.69757446  0.38806774     0.06100
H138        H  0.40915030  0.76894189  0.42932461     0.06000
C139        C  0.56862203  0.97269938  0.73886275     0.03000
C140        C  0.55393256  0.95525984  0.75324525    -0.13100
C141        C  0.55839416  0.95270541  0.77933783     0.00500
C142        C  0.57800350  0.96775600  0.79076682    -0.11600
C143        C  0.59218621  0.98571485  0.77695143     0.03000
C144        C  0.58783887  0.98760829  0.75101328    -0.11100
H145        H  0.53828802  0.94458310  0.74439532     0.08600
H146        H  0.58176613  0.96619571  0.81076732     0.06100
H147        H  0.59948127  0.00098172  0.74037529     0.06000
C148        C  0.73711457  0.93753759  0.41806271     0.03000
C149        C  0.74864370  0.94951547  0.39719478    -0.13100
C150        C  0.77353215  0.94342884  0.38962313     0.00500
C151        C  0.78630674  0.92400118  0.40185477    -0.11600
C152        C  0.77560582  0.91225796  0.42315312     0.03000
C153        C  0.75065248  0.91872141  0.43086538    -0.11100
H154        H  0.73892597  0.96477801  0.38784559     0.08600
H155        H  0.80558464  0.91938880  0.39579803     0.06100
H156        H  0.74261737  0.91068563  0.44791874     0.06000
C157        C  0.39868206  0.08378519  0.22297588     0.03000
C158        C  0.41410921  0.10221350  0.21079781    -0.13100
C159        C  0.41201453  0.10567510  0.18467783     0.00500
C160        C  0.39441241  0.09065829  0.17073488    -0.11600
C161        C  0.37948465  0.07153965  0.18228861     0.03000
C162        C  0.38143161  0.06848357  0.20851357    -0.11100
H163        H  0.42804924  0.11355090  0.22150751     0.08600
H164        H  0.39298855  0.09336592  0.15054901     0.06100
H165        H  0.36996780  0.05380121  0.21757889     0.06000
C166        C  0.20531388  0.11322206  0.52363563     0.03000
C167        C  0.19128928  0.10116419  0.54287413    -0.13100
C168        C  0.16533893  0.10643955  0.54694181     0.00500
C169        C  0.15343822  0.12472247  0.53222526    -0.11600
C170        C  0.16712801  0.13706695  0.51291149     0.03000
C171        C  0.19300915  0.13117398  0.50875999    -0.11100
H172        H  0.20045478  0.08749093  0.55479332     0.08600
H173        H  0.13321066  0.12834042  0.53496642     0.06100
H174        H  0.20343095  0.14030063  0.49357764     0.06000
Zr175      Zr  0.44852384  0.06982068  0.46731279     2.17500
O176        O  0.44503607  0.11071335  0.44636242    -0.51400
O177        O  0.40378157  0.07348632  0.48024394    -0.74600
O178        O  0.43332994  0.06602564  0.42337357    -0.81400
O179        O  0.47845422  0.10142145  0.52653835    -0.83200
O180        O  0.43966375  0.02547838  0.40905407    -0.78800
O181        O  0.45840277  0.10997607  0.48962475    -0.90400
O182        O  0.39297679  0.03812409  0.50223175    -0.76400
O183        O  0.43173833  0.02720041  0.46564798    -0.85900
O184        O  0.44680149  0.05552722  0.50985667    -0.85600
O185        O  0.47857265  0.04639746  0.44186801    -0.72300
O186        O  0.49164086  0.07249785  0.48325631    -0.84500
Zr187      Zr  0.50357339  0.99052985  0.49825127     2.26400
Zr188      Zr  0.46215376  0.00334807  0.44137842     2.06300
Zr189      Zr  0.48987667  0.05691228  0.52536206     2.10000
Zr190      Zr  0.43063715  0.01280813  0.50795589     1.78800
O191        O  0.52881275  0.08181983  0.53440800    -0.93300
O192        O  0.40022305  0.98191910  0.48933862    -0.41100
O193        O  0.47356374  0.01394943  0.52398180    -0.77700
O194        O  0.45994462  0.98763882  0.48356624    -0.96400
O195        O  0.50543683  0.00531260  0.45608963    -0.89700
O196        O  0.51988443  0.03339070  0.50048327    -0.92500
C197        C  0.38757908  0.05946141  0.49229728     1.01200
C198        C  0.46842204  0.11674054  0.51094694     1.14100
C199        C  0.43201095  0.04832732  0.40611739     1.04900
O200        O  0.42408798  0.97705751  0.43251225    -0.94700
O201        O  0.47519434  0.95951565  0.43840051    -0.90400
O202        O  0.49706702  0.95059914  0.47403657    -0.83600
C203        C  0.48673942  0.94411161  0.45276974     1.11600
O204        O  0.52557352  0.08686623  0.43349285    -0.96700
Zr205      Zr  0.52107790  0.04829758  0.45832405     1.88900
O206        O  0.54815607  0.98718714  0.48396627    -0.73300
O207        O  0.48146701  0.99642293  0.39987475    -0.52600
O208        O  0.53241273  0.03752542  0.41475200    -0.97300
O209        O  0.55482145  0.07733037  0.47405218    -0.54500
O210        O  0.55856284  0.02266927  0.46189862    -0.73800
C211        C  0.56402683  0.00115746  0.47137246     0.98500
O212        O  0.50799628  0.95275108  0.52401540    -0.62700
O213        O  0.46995531  0.06656645  0.56607413    -0.57500
O214        O  0.51850256  0.99273926  0.54182903    -0.94100
O215        O  0.51177842  0.03287330  0.55732260    -0.92600
O216        O  0.41616909  0.02344759  0.55066604    -0.92900
O217        O  0.42230461  0.97775464  0.53658373    -0.91700
C218        C  0.51975128  0.00995231  0.55947502     1.17400
H219        H  0.43607047  0.06640035  0.52013853     0.33300
H220        H  0.45361740  0.97019942  0.48356782     0.44100
H221        H  0.53662463  0.03415802  0.50817126     0.37700
H222        H  0.47956598  0.05294250  0.42498181     0.34200
H223        H  0.38600068  0.98070364  0.50173051     0.25900
H224        H  0.49815089  0.98845034  0.40320470     0.31900
H225        H  0.53721194  0.01932754  0.41494868     0.37800
H226        H  0.41270248  0.04196964  0.55071255     0.32200
H227        H  0.46550909  0.04970963  0.57321311     0.31100
H228        H  0.52816565  0.08534030  0.55284097     0.32800
H229        H  0.56199385  0.06891646  0.48895666     0.31800
H230        H  0.43543550  0.96499736  0.53215544     0.35800
H231        H  0.49153058  0.94312148  0.52230723     0.28500
H232        H  0.42716208  0.11142604  0.44018509     0.32700
H233        H  0.54289569  0.08618040  0.42579722     0.35600
H234        H  0.48412281  0.07339559  0.57680978     0.28200
H235        H  0.52085930  0.94201354  0.51529240     0.41100
H236        H  0.42475347  0.97356960  0.41407229     0.31100
H237        H  0.39270501  0.99081833  0.47488625     0.38700
H238        H  0.54562878  0.09221389  0.48118474     0.30600
H239        H  0.47089659  0.98262195  0.39182551     0.30700
H240        H  0.45582229  0.10938022  0.43096642     0.30900
C241        C  0.01692851  0.32179957  0.86002200     0.03000
C242        C  0.03784995  0.33242886  0.87361009    -0.13100
C243        C  0.05247417  0.31739175  0.88941267     0.00500
C244        C  0.04694283  0.29120190  0.89066058    -0.11600
C245        C  0.02705992  0.27970857  0.87626040     0.03000
C246        C  0.01197959  0.29526051  0.86098623    -0.11100
H247        H  0.04194777  0.35278034  0.87296374     0.08600
H248        H  0.05786938  0.27989046  0.90354149     0.06100
H249        H  0.99597691  0.28693047  0.85053012     0.06000
C250        C  0.24225158  0.94059031  0.03820171     0.03000
C251        C  0.25855760  0.92570627  0.02277952    -0.13100
C252        C  0.28481365  0.92439156  0.02834446     0.00500
C253        C  0.29423599  0.93715105  0.04996783    -0.11600
C254        C  0.27898539  0.95390893  0.06416121     0.03000
C255        C  0.25274048  0.95500964  0.05860391    -0.11100
H256        H  0.25095848  0.91569044  0.00625211     0.08600
H257        H  0.31419992  0.93506020  0.05499370     0.06100
H258        H  0.24071080  0.96802161  0.06924949     0.06000
C259        C  0.88551922  0.05692506  0.28251994     0.03000
C260        C  0.89753451  0.07820044  0.29424570    -0.13100
C261        C  0.91704602  0.09206712  0.28205195     0.00500
C262        C  0.92387450  0.08504747  0.25718810    -0.11600
C263        C  0.91152112  0.06418937  0.24475174     0.03000
C264        C  0.89230935  0.05025313  0.25757831    -0.11100
H265        H  0.89183937  0.08384520  0.31322671     0.08600
H266        H  0.93901156  0.09557830  0.24764033     0.06100
H267        H  0.88347743  0.03355783  0.24852976     0.06000
C268        C  0.93449567  0.71083998  0.06562081     0.03000
C269        C  0.91422192  0.70180845  0.05021358    -0.13100
C270        C  0.90060451  0.71855041  0.03516296     0.00500
C271        C  0.90709389  0.74467821  0.03590927    -0.11600
C272        C  0.92683440  0.75433106  0.05168119     0.03000
C273        C  0.94048018  0.73718777  0.06643802    -0.11100
H274        H  0.90924960  0.68161408  0.04957681     0.08600
H275        H  0.89682422  0.75746126  0.02390207     0.06100
H276        H  0.95596227  0.74430314  0.07837140     0.06000
C277        C  0.72739118  0.11988983  0.91688115     0.03000
C278        C  0.71153297  0.13551440  0.93185405    -0.13100
C279        C  0.68515635  0.13692668  0.92693616     0.00500
C280        C  0.67473904  0.12321035  0.90621746    -0.11600
C281        C  0.69020624  0.10742325  0.89111832     0.03000
C282        C  0.71647472  0.10585121  0.89653613    -0.11100
H283        H  0.71965117  0.14648183  0.94755579     0.08600
H284        H  0.65427059  0.12355030  0.90275729     0.06100
H285        H  0.72820240  0.09302206  0.88533541     0.06000
C286        C  0.06228447  0.99658328  0.66520412     0.03000
C287        C  0.04794218  0.97669191  0.65349772    -0.13100
C288        C  0.02979384  0.96232779  0.66721472     0.00500
C289        C  0.02629404  0.96788066  0.69297681    -0.11600
C290        C  0.04079919  0.98734694  0.70497881     0.03000
C291        C  0.05890395  0.00147906  0.69115104    -0.11100
H292        H  0.05036871  0.97285660  0.63346218     0.08600
H293        H  0.01194923  0.95740344  0.70367945     0.06100
H294        H  0.06988804  0.01667578  0.70051290     0.06000
Zr295      Zr  0.96366657  0.04209212  0.93546233     2.17500
O296        O  0.93743241  0.03725792  0.89752223    -0.51400
O297        O  0.97836858  0.08527954  0.92590061    -0.74600
O298        O  0.92244016  0.06342820  0.93939604    -0.81400
O299        O  0.01727687  0.00476348  0.90406326    -0.83200
O300        O  0.91082815  0.06218077  0.98068428    -0.78800
O301        O  0.98399512  0.03062680  0.89551795    -0.90400
O302        O  0.01074884  0.09633886  0.95283574    -0.76400
O303        O  0.96800376  0.06440079  0.97490563    -0.85900
O304        O  0.00820765  0.04224055  0.94555879    -0.85600
O305        O  0.93775493  0.01776899  0.96434912    -0.72300
O306        O  0.97557465  0.99799105  0.93756634    -0.84500
Zr307      Zr  0.99895426  0.99661818  0.01794958     2.26400
Zr308      Zr  0.94306215  0.03994305  0.00405638     2.06300
Zr309      Zr  0.01987122  0.99857804  0.94900080     2.10000
Zr310      Zr  0.01243510  0.06410900  0.98502919     1.78800
O311        O  0.02423701  0.95582772  0.93067132    -0.93300
O312        O  0.00138570  0.10341205  0.00763290    -0.41100
O313        O  0.02479854  0.02059128  0.98872871    -0.77700
O314        O  0.98749601  0.04083063  0.01533914    -0.96400
O315        O  0.95458206  0.99619513  0.00736732    -0.89700
O316        O  0.99516586  0.97425867  0.97836226    -0.92500
C317        C  0.99614674  0.10064026  0.93400537     1.01200
C318        C  0.00314910  0.01693571  0.88883206     1.14100
C319        C  0.90684686  0.06822382  0.95769334     1.04900
O320        O  0.93994584  0.08141763  0.02540242    -0.94700
O321        O  0.94318689  0.03212061  0.04890681    -0.90400
O322        O  0.97809055  0.00854046  0.05781273    -0.83600
C323        C  0.95802247  0.02104118  0.06435522     1.11600
O324        O  0.92453045  0.96297721  0.93121561    -0.96700
Zr325      Zr  0.95089351  0.97445955  0.96772278     1.88900
O326        O  0.98489202  0.95286686  0.02719356    -0.73300
O327        O  0.90072800  0.02540588  0.01798228    -0.52600
O328        O  0.90588709  0.96869006  0.97907348    -0.97300
O329        O  0.96239066  0.93440080  0.94664033    -0.54500
O330        O  0.95153405  0.94354633  0.00088261    -0.73800
C331        C  0.96628800  0.93834015  0.01929419     0.98500
O332        O  0.02392545  0.00083967  0.05677955    -0.62700
O333        O  0.06205029  0.01218790  0.93367028    -0.57500
O334        O  0.04218259  0.97969752  0.01399322    -0.94100
O335        O  0.05446203  0.98107754  0.97287179    -0.92600
O336        O  0.05717421  0.06902666  0.97217254    -0.92900
O337        O  0.04054198  0.07484208  0.02046840    -0.91700
C338        C  0.05862371  0.97629139  0.99612947     1.17400
H339        H  0.01831331  0.05046889  0.93259183     0.33300
H340        H  0.98974824  0.04927672  0.03159852     0.44100
H341        H  0.00154199  0.95710887  0.97934521     0.37700
H342        H  0.92000137  0.01751738  0.95918470     0.34200
H343        H  0.98979911  0.11239103  0.99616448     0.25900
H344        H  0.89217871  0.04104837  0.02422877     0.31900
H345        H  0.90523868  0.97233170  0.99748612     0.37800
H346        H  0.05685724  0.06940573  0.95349178     0.32200
H347        H  0.06686233  0.99902672  0.92090786     0.31100
H348        H  0.03930757  0.95713090  0.91930273     0.32800
H349        H  0.97217644  0.92483134  0.95920540     0.31800
H350        H  0.04669175  0.05815701  0.02620747     0.35800
H351        H  0.02982660  0.98346180  0.06053418     0.28500
H352        H  0.93383772  0.05485396  0.89219505     0.32700
H353        H  0.92637852  0.97776260  0.91993647     0.35600
H354        H  0.05908932  0.02770263  0.92379503     0.28200
H355        H  0.03964811  0.01067486  0.05225626     0.41100
H356        H  0.92146122  0.08539169  0.02512294     0.31100
H357        H  0.99014869  0.09781785  0.02166077     0.38700
H358        H  0.97527932  0.93935746  0.93378354     0.30600
H359        H  0.89143022  0.02044059  0.00231069     0.30700
H360        H  0.92069084  0.03014953  0.90321170     0.30900
C361        C  0.23805088  0.60952131  0.51434580     0.03000
C362        C  0.25374766  0.62782307  0.50273191    -0.13100
C363        C  0.27896256  0.63255044  0.51103162     0.00500
C364        C  0.28785220  0.61965794  0.53223228    -0.11600
C365        C  0.27199166  0.60171955  0.54454136     0.03000
C366        C  0.24717156  0.59668289  0.53534768    -0.11100
H367        H  0.24657210  0.63770767  0.48651241     0.08600
H368        H  0.30749228  0.62258391  0.53840950     0.06100
H369        H  0.23483029  0.58283938  0.54462453     0.06000
C370        C  0.70477181  0.45740913  0.43854364     0.03000
C371        C  0.69127652  0.43889284  0.45226478    -0.13100
C372        C  0.66581813  0.43232691  0.44620297     0.00500
C373        C  0.65408942  0.44399916  0.42570422    -0.11600
C374        C  0.66736291  0.46249664  0.41160624     0.03000
C375        C  0.69276870  0.46920583  0.41828251    -0.11100
H376        H  0.70048228  0.42997646  0.46805366     0.08600
H377        H  0.63413556  0.43961022  0.42153529     0.06100
H378        H  0.70333113  0.48342202  0.40763075     0.06000
C379        C  0.90826663  0.78633432  0.56487679     0.03000
C380        C  0.89016759  0.79551312  0.54774629    -0.13100
C381        C  0.88560185  0.82169827  0.54648297     0.00500
C382        C  0.89857396  0.83865577  0.56298572    -0.11600
C383        C  0.91730029  0.83007391  0.57956663     0.03000
C384        C  0.92153985  0.80377510  0.58095114    -0.11100
H385        H  0.88102852  0.78259241  0.53413161     0.08600
H386        H  0.89496837  0.85892763  0.56191198     0.06100
H387        H  0.93614013  0.79702831  0.59353672     0.06000
C388        C  0.03148133  0.27383784  0.38545669     0.03000
C389        C  0.01548074  0.25616554  0.37225948    -0.13100
C390        C  0.01952510  0.22979691  0.37373895     0.00500
C391        C  0.04033658  0.22129218  0.38777498    -0.11600
C392        C  0.05634140  0.23858762  0.40103993     0.03000
C393        C  0.05173461  0.26478422  0.40008872    -0.11100
H394        H  0.99960868  0.26287271  0.36122779     0.08600
H395        H  0.04391210  0.20100863  0.38877544     0.06100
H396        H  0.06378428  0.27801547  0.41094955     0.06000
C397        C  0.89510353  0.46983051  0.73340342     0.03000
C398        C  0.90786075  0.44982863  0.74514454    -0.13100
C399        C  0.90302054  0.44431805  0.77058969     0.00500
C400        C  0.88474466  0.45859686  0.78400516    -0.11600
C401        C  0.87225582  0.47899428  0.77281681     0.03000
C402        C  0.87727543  0.48422104  0.74736150    -0.11100
H403        H  0.92218243  0.43915581  0.73474116     0.08600
H404        H  0.88071530  0.45418982  0.80354414     0.06100
H405        H  0.86845318  0.50047060  0.73879427     0.06000
C406        C  0.04550795  0.56147731  0.20054052     0.03000
C407        C  0.03187495  0.57945857  0.18692621    -0.13100
C408        C  0.03606971  0.58247760  0.16099003     0.00500
C409        C  0.05375696  0.56672116  0.14849208    -0.11600
C410        C  0.06725076  0.54828630  0.16173968     0.03000
C411        C  0.06310954  0.54586622  0.18777462    -0.11100
H412        H  0.01757935  0.59090194  0.19649744     0.08600
H413        H  0.05704526  0.56877765  0.12841949     0.06100
H414        H  0.07411342  0.53226943  0.19817382     0.06000
Zr415      Zr  0.01402788  0.51584684  0.44216917     2.17500
O416        O  0.05489117  0.49391327  0.44036953    -0.51400
O417        O  0.01756480  0.52853058  0.39851148    -0.74600
O418        O  0.01023564  0.47340810  0.42287235    -0.81400
O419        O  0.04584660  0.57503063  0.47138113    -0.83200
O420        O  0.96956162  0.45858630  0.42923383    -0.78800
O421        O  0.05463963  0.53828204  0.44965813    -0.90400
O422        O  0.98461758  0.55498632  0.39054673    -0.76400
O423        O  0.97107298  0.51402629  0.42694197    -0.85900
O424        O  0.99984863  0.55885161  0.44151649    -0.85600
O425        O  0.99085496  0.48928040  0.47127367    -0.72300
O426        O  0.01710999  0.53179576  0.48479358    -0.84500
Zr427      Zr  0.93515631  0.54649158  0.49887434     2.26400
Zr428      Zr  0.94748809  0.48870164  0.45645607     2.06300
Zr429      Zr  0.00145925  0.57427158  0.48408691     2.10000
Zr430      Zr  0.95685997  0.55690742  0.42702281     1.78800
O431        O  0.02847710  0.58652205  0.51991104    -0.93300
O432        O  0.92989881  0.53923257  0.39319071    -0.41100
O433        O  0.95809888  0.57318868  0.46960663    -0.77700
O434        O  0.93239502  0.53150822  0.45566949    -0.96400
O435        O  0.94986638  0.50367907  0.49931859    -0.82900
O436        O  0.97825100  0.54884500  0.51368033    -0.92500
C437        C  0.00502216  0.54322321  0.38417464     1.01200
C438        C  0.06124396  0.55970452  0.46020927     1.14100
C439        C  0.99233353  0.45638944  0.42026167     1.04900
O440        O  0.91937643  0.47607963  0.42157153    -0.94700
O441        O  0.90283073  0.48723828  0.46963158    -0.90400
O442        O  0.89457357  0.52348949  0.49234641    -0.83600
C443        C  0.88754397  0.50240254  0.48132899     1.11600
O444        O  0.03262914  0.48198942  0.51446371    -0.96700
Zr445      Zr  0.99316655  0.50619006  0.51352513     1.88900
O446        O  0.93212695  0.53270676  0.54271250    -0.73300
O447        O  0.94290844  0.44720089  0.47611895    -0.52600
O448        O  0.98382852  0.46295951  0.52754372    -0.97300
O449        O  0.02239092  0.52334682  0.54581045    -0.54500
O450        O  0.96759737  0.50993941  0.55117603    -0.73800
C451        C  0.94627785  0.51993870  0.55758268     0.98500
O452        O  0.89398327  0.56780569  0.50166660    -0.62700
O453        O  0.00738012  0.61542583  0.46386252    -0.57500
O454        O  0.93859535  0.59014427  0.51583493    -0.94100
O455        O  0.97878286  0.60583650  0.50850677    -0.92600
O456        O  0.96575686  0.60096272  0.41539300    -0.92900
O457        O  0.91746121  0.58062679  0.42265096    -0.91700
C458        C  0.95600645  0.60783195  0.51734988     1.17400
H459        H  0.01066416  0.56934646  0.43092947     0.33300
H460        H  0.91490737  0.53168200  0.44978584     0.44100
H461        H  0.97913286  0.55662575  0.53034537     0.37700
H462        H  0.99760753  0.47222836  0.47103088     0.34200
H463        H  0.93134896  0.55181317  0.37951683     0.25900
H464        H  0.93366440  0.45065313  0.49216160     0.31900
H465        H  0.98169216  0.45262080  0.51180855     0.37800
H466        H  0.96443269  0.61092286  0.43142506     0.32200
H467        H  0.01699213  0.62617813  0.47633969     0.31100
H468        H  0.03549489  0.60365372  0.51577370     0.32800
H469        H  0.01290756  0.53708051  0.55467121     0.31800
H470        H  0.91511430  0.58931641  0.43926695     0.35800
H471        H  0.89226344  0.57388702  0.51941562     0.28500
H472        H  0.05732289  0.48855677  0.42248668     0.32700
H473        H  0.03365793  0.47526833  0.53176665     0.35600
H474        H  0.01979992  0.61241195  0.44998074     0.28200
H475        H  0.89601275  0.58347666  0.49162288     0.41100
H476        H  0.91046348  0.49190603  0.41718310     0.31100
H477        H  0.93920231  0.52417212  0.38661367     0.38700
H478        H  0.03600947  0.53246162  0.53627664     0.30600
H479        H  0.93028474  0.43766314  0.46543512     0.30700
H480        H  0.05205450  0.47784453  0.44961822     0.30900
C481        C  0.01434381  0.54690405  0.35838379    -0.01400
C482        C  0.01341543  0.57111113  0.34785663    -0.09400
C483        C  0.01983716  0.57458583  0.32263118    -0.18200
C484        C  0.02683203  0.55364207  0.30696310     0.04100
C485        C  0.02754943  0.52903434  0.31782317     0.18300
C486        C  0.02199569  0.52601291  0.34353345    -0.19700
C487        C  0.03287385  0.50749586  0.30277299    -0.20900
C488        C  0.03702232  0.50979186  0.27697311    -0.19500
C489        C  0.03679190  0.53378490  0.26580660     0.19700
C490        C  0.03231844  0.55612765  0.28075932     0.01800
C491        C  0.03353070  0.58001034  0.26883138    -0.14200
C492        C  0.03814641  0.58154967  0.24301982    -0.11900
C493        C  0.04149839  0.55943855  0.22813461     0.01400
C494        C  0.04098839  0.53558959  0.23971675    -0.24100
H495        H  0.00738822  0.58741648  0.35918134     0.09400
H496        H  0.01821060  0.59372377  0.31581482     0.12900
H497        H  0.02224095  0.50717364  0.35168216     0.11700
H498        H  0.03325282  0.48867503  0.31090731     0.12900
H499        H  0.04057079  0.49270062  0.26569836     0.11900
H500        H  0.03141574  0.59791604  0.27893348     0.09000
H501        H  0.03930259  0.60026766  0.23469719     0.12200
H502        H  0.04351853  0.51834083  0.22837189     0.14100
C503        C  0.90176398  0.47717645  0.70723168    -0.01400
C504        C  0.88250159  0.48325307  0.69011871    -0.09400
C505        C  0.88867590  0.49142829  0.66585771    -0.18200
C506        C  0.91451990  0.49389205  0.65791629     0.04100
C507        C  0.93397591  0.48728802  0.67526562     0.18300
C508        C  0.92747396  0.47915773  0.69960138    -0.19700
C509        C  0.95984209  0.48876973  0.66823968    -0.20900
C510        C  0.96684947  0.49614037  0.64410634    -0.19500
C511        C  0.94818630  0.50266876  0.62657518     0.19700
C512        C  0.92178482  0.50224640  0.63331666     0.01800
C513        C  0.90391235  0.51012130  0.61507812    -0.14200
C514        C  0.91187543  0.51684167  0.59078677    -0.11900
C515        C  0.93778944  0.51583376  0.58391868     0.01400
C516        C  0.95584522  0.50927070  0.60215099    -0.24100
H517        H  0.86248802  0.48157974  0.69552778     0.09400
H518        H  0.87279191  0.49546869  0.65371100     0.12900
H519        H  0.94252844  0.47478991  0.71282280     0.11700
H520        H  0.97475302  0.48383878  0.68138993     0.12900
H521        H  0.98702999  0.49665366  0.63908623     0.11900
H522        H  0.88365002  0.51112979  0.61894712     0.09000
H523        H  0.89759403  0.52206773  0.57711634     0.12200
H524        H  0.97605462  0.50894788  0.59722186     0.14100
C525        C  0.99862720  0.43186577  0.40750211    -0.01400
C526        C  0.02420648  0.42535844  0.40290070    -0.09400
C527        C  0.03046868  0.40046442  0.39554522    -0.18200
C528        C  0.01123092  0.38115082  0.39291016     0.04100
C529        C  0.98523539  0.38835280  0.39597035     0.18300
C530        C  0.97920873  0.41354275  0.40268458    -0.19700
C531        C  0.96539231  0.37008134  0.39385070    -0.20900
C532        C  0.97084678  0.34443425  0.39028898    -0.19500
C533        C  0.99624834  0.33653288  0.38827544     0.19700
C534        C  0.01681315  0.35479690  0.38869637     0.01800
C535        C  0.04205168  0.34570805  0.38587693    -0.14200
C536        C  0.04666705  0.31954849  0.38414456    -0.11900
C537        C  0.02637890  0.30161411  0.38505481     0.01400
C538        C  0.00118337  0.31033315  0.38659027    -0.24100
H539        H  0.03961719  0.43919286  0.40619916     0.09400
H540        H  0.05059136  0.39671577  0.39319559     0.12900
H541        H  0.95929995  0.41843756  0.40571789     0.11700
H542        H  0.94553520  0.37553034  0.39597452     0.12900
H543        H  0.95509156  0.33061507  0.38965971     0.11900
H544        H  0.05864460  0.35827776  0.38524573     0.09000
H545        H  0.06628155  0.31330542  0.38228307     0.12200
H546        H  0.98532980  0.29666226  0.38748362     0.14100
C547        C  0.91557188  0.75910347  0.56349623    -0.01400
C548        C  0.94145275  0.75245454  0.56452462    -0.09400
C549        C  0.94883079  0.72732580  0.56006586    -0.18200
C550        C  0.93048118  0.70795775  0.55394349     0.04100
C551        C  0.90416092  0.71456289  0.55409297     0.18300
C552        C  0.89698404  0.73985980  0.55903356    -0.19700
C553        C  0.88518114  0.69607316  0.54848996    -0.20900
C554        C  0.89181109  0.67124811  0.54188576    -0.19500
C555        C  0.91758213  0.66437041  0.54059132     0.19700
C556        C  0.93731140  0.68253219  0.54687661     0.01800
C557        C  0.96303788  0.67469180  0.54488764    -0.14200
C558        C  0.96888943  0.65023583  0.53609279    -0.11900
C559        C  0.94940478  0.63261652  0.52928694     0.01400
C560        C  0.92375513  0.63963385  0.53219248    -0.24100
H561        H  0.95629595  0.76690670  0.56771411     0.09400
H562        H  0.96910426  0.72388995  0.56091389     0.12900
H563        H  0.87687004  0.74473476  0.55869955     0.11700
H564        H  0.86507654  0.70097155  0.54872369     0.12900
H565        H  0.87668690  0.65748111  0.53718338     0.11900
H566        H  0.97914601  0.68714332  0.54935075     0.09000
H567        H  0.98889432  0.64526809  0.53421751     0.12200
H568        H  0.90852696  0.62620514  0.52685244     0.14100
C569        C  0.73119974  0.46476977  0.44603943    -0.01400
C570        C  0.73757538  0.49024418  0.45203243    -0.09400
C571        C  0.76228008  0.49710088  0.46018122    -0.18200
C572        C  0.78154601  0.47855921  0.46220011     0.04100
C573        C  0.77485662  0.45273412  0.45587161     0.18300
C574        C  0.74984789  0.44609756  0.44815327    -0.19700
C575        C  0.79321272  0.43367268  0.45702243    -0.20900
C576        C  0.81835242  0.43974348  0.46372693    -0.19500
C577        C  0.82569309  0.46498393  0.46970929     0.19700
C578        C  0.80732025  0.48471094  0.46963097     0.01800
C579        C  0.81574229  0.50975090  0.47651358    -0.14200
C580        C  0.84155799  0.51514621  0.48178665    -0.11900
C581        C  0.85980469  0.49585793  0.48034668     0.01400
C582        C  0.85155525  0.47069834  0.47498914    -0.24100
H583        H  0.72322691  0.50485566  0.45077838     0.09400
H584        H  0.76574278  0.51706555  0.46450874     0.12900
H585        H  0.74488677  0.42635089  0.44344722     0.11700
H586        H  0.78819178  0.41396659  0.45228189     0.12900
H587        H  0.83224227  0.42461227  0.46392938     0.11900
H588        H  0.80296769  0.52567121  0.47751556     0.09000
H589        H  0.84741046  0.53476283  0.48587430     0.12200
H590        H  0.86548152  0.45557970  0.47411949     0.14100
C591        C  0.21264993  0.60287123  0.50360735    -0.01400
C592        C  0.19598013  0.62206028  0.49658634    -0.09400
C593        C  0.17202510  0.61584338  0.48637266    -0.18200
C594        C  0.16396509  0.59003812  0.48290794     0.04100
C595        C  0.18124566  0.57065850  0.48962504     0.18300
C596        C  0.20531594  0.57722209  0.49977450    -0.19700
C597        C  0.17424407  0.54483900  0.48662983    -0.20900
C598        C  0.14996182  0.53776674  0.47797126    -0.19500
C599        C  0.13219533  0.55636350  0.47198441     0.19700
C600        C  0.13912165  0.58277375  0.47382986     0.01800
C601        C  0.12052784  0.60078482  0.46739568    -0.14200
C602        C  0.09559996  0.59298617  0.46140451    -0.11900
C603        C  0.08853736  0.56707921  0.46104038     0.01400
C604        C  0.10712600  0.54875875  0.46528850    -0.24100
H605        H  0.20135452  0.64201370  0.49937586     0.09400
H606        H  0.16020775  0.63170698  0.48173953     0.12900
H607        H  0.21844397  0.56231317  0.50470550     0.11700
H608        H  0.18744370  0.53000848  0.49155321     0.12900
H609        H  0.14485215  0.51762261  0.47648500     0.11900
H610        H  0.12431074  0.62107874  0.46761377     0.09000
H611        H  0.08147335  0.60739298  0.45787934     0.12200
H612        H  0.10163076  0.52866119  0.46515695     0.14100
C613        C  0.01342930  0.94268792  0.65424711    -0.01400
C614        C  0.00341849  0.94761991  0.63040548    -0.09400
C615        C  0.98808480  0.92954888  0.61776019    -0.18200
C616        C  0.98210379  0.90572407  0.62861987     0.04100
C617        C  0.99134503  0.90109899  0.65327327     0.18300
C618        C  0.00712432  0.91941548  0.66572086    -0.19700
C619        C  0.98456656  0.87835328  0.66534414    -0.20900
C620        C  0.96846271  0.86025770  0.65351687    -0.19500
C621        C  0.95945419  0.86411029  0.62902020     0.19700
C622        C  0.96680422  0.88661587  0.61602435     0.01800
C623        C  0.95887687  0.88893496  0.59075686    -0.14200
C624        C  0.94316677  0.87043694  0.57931523    -0.11900
C625        C  0.93454346  0.84899300  0.59253693     0.01400
C626        C  0.94319641  0.84564221  0.61731242    -0.24100
H627        H  0.00710292  0.96581224  0.62156977     0.09400
H628        H  0.98070948  0.93513239  0.59976395     0.12900
H629        H  0.01460361  0.91549405  0.68429172     0.11700
H630        H  0.99143787  0.87471576  0.68420224     0.12900
H631        H  0.96320228  0.84305378  0.66350279     0.11900
H632        H  0.96490648  0.90455474  0.57906450     0.09000
H633        H  0.93796692  0.87286556  0.55973322     0.12200
H634        H  0.93708384  0.82885551  0.62755340     0.14100
C635        C  0.03635563  0.99341256  0.73186323    -0.01400
C636        C  0.05668520  0.99326645  0.74893843    -0.09400
C637        C  0.05240659  0.99794574  0.77459423    -0.18200
C638        C  0.02750881  0.00319229  0.78385846     0.04100
C639        C  0.00716986  0.00442116  0.76614497     0.18300
C640        C  0.01169235  0.99918454  0.74046819    -0.19700
C641        C  0.98246511  0.01082669  0.77415707    -0.20900
C642        C  0.97742502  0.01588773  0.79954003    -0.19500
C643        C  0.99680930  0.01395299  0.81756529     0.19700
C644        C  0.02206991  0.00727257  0.81001057     0.01800
C645        C  0.04064870  0.00433941  0.82901896    -0.14200
C646        C  0.03439976  0.00785191  0.85439623    -0.11900
C647        C  0.00958524  0.01467268  0.86175294     0.01400
C648        C  0.99093949  0.01805542  0.84321232    -0.24100
H649        H  0.07590291  0.98904799  0.74243049     0.09400
H650        H  0.06901761  0.99752694  0.78659727     0.12900
H651        H  0.99605147  0.99976662  0.72704863     0.11700
H652        H  0.96694939  0.01200211  0.76068634     0.12900
H653        H  0.95811682  0.02086983  0.80516805     0.11900
H654        H  0.06002576  0.99871691  0.82500437     0.09000
H655        H  0.04915535  0.00510438  0.86838634     0.12200
H656        H  0.97159310  0.02299356  0.84879473     0.14100
C657        C  0.75483363  0.11670383  0.92360888    -0.01400
C658        C  0.76210107  0.11500896  0.94897698    -0.09400
C659        C  0.78736438  0.10990819  0.95550191    -0.18200
C660        C  0.80635379  0.10594511  0.93674212     0.04100
C661        C  0.79913516  0.10851692  0.91107155     0.18300
C662        C  0.77367895  0.11403620  0.90478866    -0.19700
C663        C  0.81719145  0.10482984  0.89176471    -0.20900
C664        C  0.84205743  0.09761466  0.89732143    -0.19500
C665        C  0.84955507  0.09403754  0.92234424     0.19700
C666        C  0.83196230  0.09869138  0.94245494     0.01800
C667        C  0.84056192  0.09514588  0.96737675    -0.14200
C668        C  0.86504665  0.08619063  0.97205412    -0.11900
C669        C  0.88204988  0.08052221  0.95219279     0.01400
C670        C  0.87432251  0.08512270  0.92733979    -0.24100
H671        H  0.74799818  0.11673426  0.96395506     0.09400
H672        H  0.79118835  0.10853782  0.97539540     0.12900
H673        H  0.76842220  0.11580488  0.88511972     0.11700
H674        H  0.81187571  0.10695747  0.87216002     0.12900
H675        H  0.85538072  0.09433494  0.88188383     0.11900
H676        H  0.82870826  0.09866541  0.98373180     0.09000
H677        H  0.87041735  0.08316243  0.99149202     0.12200
H678        H  0.88725119  0.08098026  0.91176387     0.14100
C679        C  0.02190628  0.60213582  0.14717115    -0.01400
C680        C  0.01781869  0.62622320  0.15835984    -0.09400
C681        C  0.00391286  0.64462618  0.14590696    -0.18200
C682        C  0.99365920  0.63957273  0.12159425     0.04100
C683        C  0.99845367  0.61534888  0.11004051     0.18300
C684        C  0.01223274  0.59691027  0.12291825    -0.19700
C685        C  0.98949407  0.60964188  0.08566584    -0.20900
C686        C  0.97590821  0.62753045  0.07240117    -0.19500
C687        C  0.97045330  0.65135651  0.08339794     0.19700
C688        C  0.97898822  0.65767813  0.10825331     0.01800
C689        C  0.97220847  0.68172448  0.11870370    -0.14200
C690        C  0.95782008  0.69880089  0.10492651    -0.11900
C691        C  0.94977165  0.69262085  0.08029343     0.01400
C692        C  0.95631466  0.66884593  0.06966232    -0.24100
H693        H  0.02561273  0.63098461  0.17683844     0.09400
H694        H  0.00178044  0.66269574  0.15571641     0.12900
H695        H  0.01511535  0.57828907  0.11413945     0.11700
H696        H  0.99316670  0.59125868  0.07671879     0.12900
H697        H  0.96938246  0.62258305  0.05347991     0.11900
H698        H  0.97738328  0.68777382  0.13760714     0.09000
H699        H  0.95264697  0.71681553  0.11378283     0.12200
H700        H  0.95052234  0.66394667  0.05049540     0.14100
C701        C  0.93348508  0.78217737  0.05199117    -0.01400
C702        C  0.95910962  0.79083573  0.05324979    -0.09400
C703        C  0.96540792  0.81686667  0.05160232    -0.18200
C704        C  0.94619410  0.83517850  0.04818654     0.04100
C705        C  0.92023340  0.82631322  0.04736136     0.18300
C706        C  0.91416433  0.80025286  0.04977153    -0.19700
C707        C  0.90043343  0.84335788  0.04322910    -0.20900
C708        C  0.90590152  0.86889033  0.03865201    -0.19500
C709        C  0.93125609  0.87812810  0.03870697     0.19700
C710        C  0.95175944  0.86172686  0.04441059     0.01800
C711        C  0.97688603  0.87257090  0.04531030    -0.14200
C712        C  0.98155018  0.89809200  0.03883819    -0.11900
C713        C  0.96138481  0.91341900  0.03124548     0.01400
C714        C  0.93624096  0.90352920  0.03211616    -0.24100
H715        H  0.97451544  0.77737646  0.05466171     0.09400
H716        H  0.98553110  0.82196498  0.05214654     0.12900
H717        H  0.89422769  0.79396979  0.04934935     0.11700
H718        H  0.88061082  0.83672316  0.04266975     0.12900
H719        H  0.89019485  0.88142069  0.03460054     0.11900
H720        H  0.99333661  0.86166640  0.05041505     0.09000
H721        H  0.00112249  0.90542192  0.03847425     0.12200
H722        H  0.92048044  0.91546922  0.02670278     0.14100
C723        C  0.00180132  0.21082048  0.36146465    -0.01400
C724        C  0.99416950  0.18889908  0.37447031    -0.09400
C725        C  0.97917816  0.16981546  0.36278222    -0.18200
C726        C  0.97130063  0.17193524  0.33740598     0.04100
C727        C  0.97802482  0.19475582  0.32461938     0.18300
C728        C  0.99308758  0.21394159  0.33671229    -0.19700
C729        C  0.97015513  0.19801919  0.29966025    -0.20900
C730        C  0.95635130  0.17879860  0.28684887    -0.19500
C731        C  0.95021433  0.15574943  0.29860769     0.19700
C732        C  0.95738971  0.15208375  0.32415932     0.01800
C733        C  0.95087665  0.12844037  0.33514495    -0.14200
C734        C  0.93802472  0.10926140  0.32132713    -0.11900
C735        C  0.93100156  0.11285105  0.29614218     0.01400
C736        C  0.93716088  0.13620746  0.28488403    -0.24100
H737        H  0.99998068  0.18639612  0.39387434     0.09400
H738        H  0.97430086  0.15357648  0.37412378     0.12900
H739        H  0.99879935  0.23089710  0.32652726     0.11700
H740        H  0.97499283  0.21544471  0.28985678     0.12900
H741        H  0.95079024  0.18183052  0.26745339     0.11900
H742        H  0.95571681  0.12394634  0.35427756     0.09000
H743        H  0.93386047  0.09127016  0.33038216     0.12200
H744        H  0.93161217  0.13924401  0.26547778     0.14100
C745        C  0.91914668  0.05646351  0.21865386    -0.01400
C746        C  0.94509795  0.05480725  0.21194231    -0.09400
C747        C  0.95236839  0.04756435  0.18741707    -0.18200
C748        C  0.93377926  0.04203310  0.16858063     0.04100
C749        C  0.90747961  0.04427225  0.17538020     0.18300
C750        C  0.90045172  0.05093822  0.20027705    -0.19700
C751        C  0.88833422  0.04036569  0.15717277    -0.20900
C752        C  0.89474185  0.03490053  0.13215849    -0.19500
C753        C  0.92041558  0.03230480  0.12489449     0.19700
C754        C  0.94029291  0.03502920  0.14311919     0.01800
C755        C  0.96576376  0.03061322  0.13500515    -0.14200
C756        C  0.97131364  0.02492574  0.10966133    -0.11900
C757        C  0.95179733  0.02382918  0.09155962     0.01400
C758        C  0.92633848  0.02720364  0.09940729    -0.24100
H759        H  0.95989362  0.05890901  0.22583405     0.09400
H760        H  0.97267891  0.04698070  0.18364620     0.12900
H761        H  0.88033404  0.05255876  0.20522276     0.11700
H762        H  0.86826192  0.04210523  0.16220348     0.12900
H763        H  0.87948303  0.03259873  0.11840037     0.11900
H764        H  0.98179330  0.03135858  0.14780804     0.09000
H765        H  0.99110718  0.02226447  0.10406443     0.12200
H766        H  0.91105084  0.02596720  0.08556682     0.14100
C767        C  0.08455788  0.96735113  0.00271380    -0.01400
C768        C  0.09082490  0.96176485  0.02769071    -0.09400
C769        C  0.11589154  0.95561771  0.03418176    -0.18200
C770        C  0.13569353  0.95501220  0.01581101     0.04100
C771        C  0.12909629  0.96013750  0.99042304     0.18300
C772        C  0.10381705  0.96603349  0.98414219    -0.19700
C773        C  0.14786140  0.95990616  0.97145162    -0.20900
C774        C  0.17325941  0.95509632  0.97718974    -0.19500
C775        C  0.18052812  0.95038966  0.00204294     0.19700
C776        C  0.16184738  0.95003355  0.02171702     0.01800
C777        C  0.17029938  0.94519026  0.04648206    -0.14200
C778        C  0.19623270  0.94167965  0.05155758    -0.11900
C779        C  0.21459446  0.94261009  0.03221068     0.01400
C780        C  0.20652466  0.94655767  0.00740506    -0.24100
H781        H  0.07640146  0.96257727  0.04244894     0.09400
H782        H  0.11919608  0.95183612  0.05380971     0.12900
H783        H  0.09935824  0.97031942  0.96471394     0.11700
H784        H  0.14291233  0.96378129  0.95205384     0.12900
H785        H  0.18737637  0.95534790  0.96210844     0.11900
H786        H  0.15742673  0.94428813  0.06241082     0.09000
H787        H  0.20201687  0.93830398  0.07081595     0.12200
H788        H  0.22064018  0.94753985  0.99234212     0.14100
C789        C  0.91881243  0.42566850  0.78412795    -0.01400
C790        C  0.92866102  0.43235691  0.80797731    -0.09400
C791        C  0.94397256  0.41568594  0.82106471    -0.18200
C792        C  0.95012740  0.39145916  0.81071617     0.04100
C793        C  0.94027545  0.38467179  0.78642760     0.18300
C794        C  0.92475779  0.40175139  0.77338389    -0.19700
C795        C  0.94619512  0.36099900  0.77527399    -0.20900
C796        C  0.96204131  0.34409702  0.78754596    -0.19500
C797        C  0.97217920  0.35030643  0.81141401     0.19700
C798        C  0.96603671  0.37396041  0.82346030     0.01800
C799        C  0.97611260  0.37912755  0.84779283    -0.14200
C800        C  0.99220130  0.36201884  0.85930677    -0.11900
C801        C  0.99903419  0.33910010  0.84716531     0.01400
C802        C  0.98856631  0.33312622  0.82330400    -0.24100
H803        H  0.92490880  0.45093216  0.81645056     0.09400
H804        H  0.95095626  0.42260347  0.83909828     0.12900
H805        H  0.91722683  0.39640973  0.75491900     0.11700
H806        H  0.93872981  0.35562055  0.75680064     0.12900
H807        H  0.96645999  0.32606477  0.77825927     0.11900
H808        H  0.97187814  0.39616937  0.85861274     0.09000
H809        H  0.99920726  0.36674931  0.87809646     0.12200
H810        H  0.99354660  0.31536138  0.81379214     0.14100
C811        C  0.02142532  0.25184258  0.87900485    -0.01400
C812        C  0.99613157  0.24227234  0.88014645    -0.09400
C813        C  0.99101550  0.21675752  0.88623353    -0.18200
C814        C  0.01113940  0.20005980  0.89195779     0.04100
C815        C  0.03672370  0.20971246  0.89007678     0.18300
C816        C  0.04156906  0.23499243  0.88295802    -0.19700
C817        C  0.05740311  0.19445967  0.89634839    -0.20900
C818        C  0.05321598  0.17011464  0.90561183    -0.19500
C819        C  0.02827692  0.16014190  0.90812367     0.19700
C820        C  0.00688490  0.17454569  0.90047265     0.01800
C821        C  0.98222751  0.16288782  0.90215626    -0.14200
C822        C  0.97892712  0.13850934  0.91215562    -0.11900
C823        C  0.99994964  0.12518926  0.92111478     0.01400
C824        C  0.02460506  0.13595706  0.91867406    -0.24100
H825        H  0.98012379  0.25477560  0.87742825     0.09400
H826        H  0.97109430  0.21099482  0.88740450     0.12900
H827        H  0.06125853  0.24186465  0.88146417     0.11700
H828        H  0.07695212  0.20174169  0.89490524     0.12900
H829        H  0.06960761  0.15909589  0.91107990     0.11900
H830        H  0.96514152  0.17215752  0.89598792     0.09000
H831        H  0.95971760  0.13039819  0.91368765     0.12200
H832        H  0.04100545  0.12548005  0.92512885     0.14100
C833        C  0.07714556  0.22866809  0.41661015    -0.01400
C834        C  0.09531861  0.21266170  0.40552804    -0.09400
C835        C  0.11261857  0.19976490  0.42039183    -0.18200
C836        C  0.11177626  0.20201254  0.44705565     0.04100
C837        C  0.09389901  0.21916154  0.45813666     0.18300
C838        C  0.07709887  0.23263952  0.44282862    -0.19700
C839        C  0.09200893  0.22175655  0.48443746    -0.20900
C840        C  0.10661362  0.20675941  0.50003993    -0.19500
C841        C  0.12370552  0.18906274  0.48971552     0.19700
C842        C  0.12711150  0.18696927  0.46309535     0.01800
C843        C  0.14509635  0.16925773  0.45367892    -0.14200
C844        C  0.15817063  0.15347839  0.46990501    -0.11900
C845        C  0.15403725  0.15490814  0.49604481     0.01400
C846        C  0.13704745  0.17304407  0.50585141    -0.24100
H847        H  0.09560445  0.20954864  0.38523079     0.09400
H848        H  0.12567936  0.18743488  0.41042903     0.12900
H849        H  0.06284637  0.24494219  0.45139115     0.11700
H850        H  0.07854250  0.23488738  0.49300364     0.12900
H851        H  0.10415921  0.20866925  0.52032486     0.11900
H852        H  0.14928632  0.16682876  0.43385464     0.09000
H853        H  0.17112243  0.13957526  0.46182029     0.12200
H854        H  0.13410687  0.17458714  0.52610813     0.14100
C855        C  0.15036964  0.09130127  0.56530150    -0.01400
C856        C  0.13558652  0.10323165  0.58402431    -0.09400
C857        C  0.12175957  0.08870505  0.60148294    -0.18200
C858        C  0.12207047  0.06163935  0.60043197     0.04100
C859        C  0.13679743  0.04975163  0.58099658     0.18300
C860        C  0.15086590  0.06459042  0.56388827    -0.19700
C861        C  0.13731723  0.02310612  0.57860124    -0.20900
C862        C  0.12339488  0.00785579  0.59508299    -0.19500
C863        C  0.10877371  0.01888007  0.61448241     0.19700
C864        C  0.10808310  0.04591687  0.61765675     0.01800
C865        C  0.09328020  0.05596398  0.63782686    -0.14200
C866        C  0.07911244  0.03988423  0.65356026    -0.11900
C867        C  0.07927555  0.01330419  0.64987592     0.01400
C868        C  0.09452406  0.00294971  0.63052918    -0.24100
H869        H  0.13499883  0.12389244  0.58533207     0.09400
H870        H  0.11089386  0.09922019  0.61541299     0.12900
H871        H  0.16202193  0.05533051  0.54911399     0.11700
H872        H  0.14844436  0.01398362  0.56374697     0.12900
H873        H  0.12400605  0.98727311  0.59258219     0.11900
H874        H  0.09200483  0.07616257  0.64179497     0.09000
H875        H  0.06731677  0.04840168  0.66822865     0.12200
H876        H  0.09512386  0.98238188  0.62780451     0.14100
C877        C  0.36085463  0.06826640  0.49533806    -0.01400
C878        C  0.35423793  0.09342503  0.49009888    -0.09400
C879        C  0.32918813  0.10177059  0.49410081    -0.18200
C880        C  0.30983533  0.08505872  0.50341175     0.04100
C881        C  0.31655862  0.05940022  0.50802401     0.18300
C882        C  0.34176137  0.05137901  0.50413689    -0.19700
C883        C  0.29812178  0.04178702  0.51654574    -0.20900
C884        C  0.27298074  0.04906972  0.52058419    -0.19500
C885        C  0.26577875  0.07426276  0.51665950     0.19700
C886        C  0.28408648  0.09273877  0.50826549     0.01800
C887        C  0.27582892  0.11808365  0.50541082    -0.14200
C888        C  0.25048602  0.12469276  0.51059429    -0.11900
C889        C  0.23240962  0.10628926  0.51846467     0.01400
C890        C  0.24029260  0.08104719  0.52124586    -0.24100
H891        H  0.36855108  0.10686380  0.48319595     0.09400
H892        H  0.32556903  0.12136209  0.48965382     0.12900
H893        H  0.34647083  0.03175627  0.50799048     0.11700
H894        H  0.30316080  0.02218114  0.52002228     0.12900
H895        H  0.25911973  0.03493883  0.52707974     0.11900
H896        H  0.28857500  0.13332728  0.49960006     0.09000
H897        H  0.24515461  0.14444584  0.50872611     0.12200
H898        H  0.22649694  0.06643302  0.52679085     0.14100
C899        C  0.29165569  0.97197161  0.08254259    -0.01400
C900        C  0.28013976  0.97933709  0.10547272    -0.09400
C901        C  0.29319936  0.99570340  0.12264037    -0.18200
C902        C  0.31836356  0.00498799  0.11738970     0.04100
C903        C  0.32959270  0.99763249  0.09392444     0.18300
C904        C  0.31608603  0.98193775  0.07677621    -0.19700
C905        C  0.35446142  0.00570584  0.08760423    -0.20900
C906        C  0.36869767  0.02096348  0.10419449    -0.19500
C907        C  0.35826029  0.02886052  0.12733525     0.19700
C908        C  0.33293831  0.02117669  0.13437448     0.01800
C909        C  0.32351960  0.03011210  0.15801206    -0.14200
C910        C  0.33858174  0.04620162  0.17372786    -0.11900
C911        C  0.36341042  0.05382578  0.16640561     0.01400
C912        C  0.37314054  0.04465477  0.14334921    -0.24100
H913        H  0.26122072  0.97206985  0.11038257     0.09400
H914        H  0.28332586  0.00044002  0.13998691     0.12900
H915        H  0.32486624  0.97738860  0.05867991     0.11700
H916        H  0.36307496  0.99999170  0.06974523     0.12900
H917        H  0.38798140  0.02679660  0.09878361     0.11900
H918        H  0.30453146  0.02521958  0.16469957     0.09000
H919        H  0.33059634  0.05308504  0.19145138     0.12200
H920        H  0.39255645  0.04986383  0.13776784     0.14100
C921        C  0.42259702  0.05461249  0.38054047    -0.01400
C922        C  0.41946385  0.07999659  0.37339563    -0.09400
C923        C  0.41410278  0.08587101  0.34827711    -0.18200
C924        C  0.41183576  0.06642369  0.32935674     0.04100
C925        C  0.41403217  0.04068181  0.33696103     0.18300
C926        C  0.41915864  0.03507670  0.36221021    -0.19700
C927        C  0.41180954  0.02058564  0.31922100    -0.20900
C928        C  0.40787001  0.02545896  0.29388070    -0.19500
C929        C  0.40610403  0.05055484  0.28560628     0.19700
C930        C  0.40794439  0.07146550  0.30315927     0.01800
C931        C  0.40630907  0.09641999  0.29356390    -0.14200
C932        C  0.40326190  0.10034390  0.26767917    -0.11900
C933        C  0.40149894  0.07962733  0.25052798     0.01400
C934        C  0.40283131  0.05479181  0.25972937    -0.24100
H935        H  0.42198940  0.09549590  0.38708206     0.09400
H936        H  0.41232961  0.10583054  0.34417193     0.12900
H937        H  0.42129359  0.01529753  0.36739075     0.11700
H938        H  0.41343478  0.00092155  0.32494303     0.12900
H939        H  0.40646778  0.00945900  0.28059942     0.11900
H940        H  0.40751730  0.11328779  0.30554251     0.09000
H941        H  0.40208348  0.11971997  0.26104555     0.12200
H942        H  0.40190734  0.03864222  0.24658181     0.14100
C943        C  0.79234952  0.89685927  0.43937763    -0.01400
C944        C  0.81778017  0.90510712  0.44339167    -0.09400
C945        C  0.83399054  0.89188683  0.45896278    -0.18200
C946        C  0.82528456  0.86989344  0.47162879     0.04100
C947        C  0.79940187  0.86159791  0.46793011     0.18300
C948        C  0.78323514  0.87498766  0.45174007    -0.19700
C949        C  0.78974909  0.84038408  0.48088142    -0.20900
C950        C  0.80500224  0.82780243  0.49806499    -0.19500
C951        C  0.83043322  0.83582978  0.50237651     0.19700
C952        C  0.84112069  0.85654033  0.48860860     0.01800
C953        C  0.86715103  0.86333262  0.49273841    -0.14200
C954        C  0.88134406  0.85143890  0.51108536    -0.11900
C955        C  0.87036194  0.83215689  0.52574054     0.01400
C956        C  0.84515454  0.82373963  0.52076067    -0.24100
H957        H  0.82516706  0.92244046  0.43494644     0.09400
H958        H  0.85300972  0.89996297  0.46123263     0.12900
H959        H  0.76354972  0.86852949  0.44892632     0.11700
H960        H  0.77008310  0.83384597  0.47815087     0.12900
H961        H  0.79676105  0.81186775  0.50825985     0.11900
H962        H  0.87717260  0.87786324  0.48226097     0.09000
H963        H  0.90111240  0.85754805  0.51403994     0.12200
H964        H  0.83676226  0.80846891  0.53179980     0.14100
C965        C  0.78823329  0.96050466  0.37274665    -0.01400
C966        C  0.77933009  0.96671060  0.34879209    -0.09400
C967        C  0.79385613  0.98293845  0.33331280    -0.18200
C968        C  0.81761372  0.99367246  0.34165022     0.04100
C969        C  0.82583597  0.98794755  0.36644634     0.18300
C970        C  0.81129065  0.97146932  0.38150764    -0.19700
C971        C  0.84863135  0.99856769  0.37616279    -0.20900
C972        C  0.86391877  0.01443049  0.36156550    -0.19500
C973        C  0.85689968  0.01983986  0.33681899     0.19700
C974        C  0.83363729  0.00970613  0.32641595     0.01800
C975        C  0.82783556  0.01570541  0.30112993    -0.14200
C976        C  0.84458561  0.03092579  0.28682809    -0.11900
C977        C  0.86743232  0.04079751  0.29731434     0.01400
C978        C  0.87335606  0.03511431  0.32233484    -0.24100
H979        H  0.76128598  0.95870944  0.34192673     0.09400
H980        H  0.78601561  0.98676379  0.31500146     0.12900
H981        H  0.81783951  0.96727389  0.40038151     0.11700
H982        H  0.85478409  0.99443055  0.39515802     0.12900
H983        H  0.88156823  0.02224554  0.36958596     0.11900
H984        H  0.81065832  0.00871705  0.29182854     0.09000
H985        H  0.83954170  0.03518172  0.26756210     0.12200
H986        H  0.89124845  0.04220486  0.33047890     0.14100
C987        C  0.71243464  0.94714225  0.42817391    -0.01400
C988        C  0.70844378  0.97350971  0.42968949    -0.09400
C989        C  0.68518198  0.98313063  0.43814292    -0.18200
C990        C  0.66485940  0.96660101  0.44548218     0.04100
C991        C  0.66923799  0.93986152  0.44485029     0.18300
C992        C  0.69291071  0.93039530  0.43631325    -0.19700
C993        C  0.64983647  0.92276119  0.45241265    -0.20900
C994        C  0.62600746  0.93160976  0.46020468    -0.19500
C995        C  0.62090550  0.95777327  0.46047393     0.19700
C996        C  0.64031666  0.97565296  0.45317303     0.01800
C997        C  0.63414568  0.00180977  0.45335817    -0.14200
C998        C  0.60968306  0.00978892  0.45996340    -0.11900
C999        C  0.59043074  0.99215669  0.46680721     0.01400
C1000       C  0.59631374  0.96615313  0.46745300    -0.24100
H1001       H  0.72352064  0.98691002  0.42438175     0.09400
H1002       H  0.68381533  0.00362648  0.43866440     0.12900
H1003       H  0.69592598  0.90996238  0.43541319     0.11700
H1004       H  0.65304446  0.90236590  0.45211372     0.12900
H1005       H  0.61134065  0.91784915  0.46573456     0.11900
H1006       H  0.64758571  0.01664154  0.44804683     0.09000
H1007       H  0.60576951  0.03002211  0.45941443     0.12200
H1008       H  0.58150598  0.95232806  0.47250350     0.14100
C1009       C  0.67832047  0.09066925  0.87136172    -0.01400
C1010       C  0.66180127  0.10061165  0.85342022    -0.09400
C1011       C  0.64920216  0.08448274  0.83589433    -0.18200
C1012       C  0.65238857  0.05767695  0.83615948     0.04100
C1013       C  0.66931223  0.04781063  0.85440585     0.18300
C1014       C  0.68226492  0.06430637  0.87148570    -0.19700
C1015       C  0.67270808  0.02145518  0.85601452    -0.20900
C1016       C  0.65907607  0.00450134  0.84036701    -0.19500
C1017       C  0.64193339  0.01348846  0.82250594     0.19700
C1018       C  0.63879764  0.04022311  0.81964686     0.01800
C1019       C  0.62177415  0.04820716  0.80075865    -0.14200
C1020       C  0.60754147  0.03040450  0.78631808    -0.11900
C1021       C  0.60975372  0.00413965  0.79016416     0.01400
C1022       C  0.62739619  0.99581533  0.80792319    -0.24100
H1023       H  0.65851696  0.12097417  0.85307380     0.09400
H1024       H  0.63664731  0.09351228  0.82281240     0.12900
H1025       H  0.69471158  0.05650343  0.88564389     0.11700
H1026       H  0.68560443  0.01385290  0.86986981     0.12900
H1027       H  0.66171523  0.98417363  0.84248671     0.11900
H1028       H  0.61874854  0.06805285  0.79692734     0.09000
H1029       H  0.59399142  0.03726408  0.77267961     0.12200
H1030       H  0.62944990  0.97548991  0.81069926     0.14100
C1031       C  0.56314068  0.97663699  0.71155552    -0.01400
C1032       C  0.55563830  0.95620465  0.69550666    -0.09400
C1033       C  0.55024718  0.96013965  0.66999213    -0.18200
C1034       C  0.55221843  0.98481447  0.65958832     0.04100
C1035       C  0.56021695  0.00536257  0.67585531     0.18300
C1036       C  0.56537674  0.00116210  0.70139814    -0.19700
C1037       C  0.56259431  0.03018720  0.66671332    -0.20900
C1038       C  0.55626547  0.03530945  0.64191475    -0.19500
C1039       C  0.54751115  0.01571892  0.62558568     0.19700
C1040       C  0.54593622  0.99006230  0.63391010     0.01800
C1041       C  0.53762985  0.97099196  0.61627503    -0.14200
C1042       C  0.53007842  0.97735440  0.59188324    -0.11900
C1043       C  0.53041809  0.00286260  0.58427425     0.01400
C1044       C  0.53971597  0.02183417  0.60112014    -0.24100
H1045       H  0.55408572  0.93699517  0.70263375     0.09400
H1046       H  0.54440674  0.94352541  0.65895020     0.12900
H1047       H  0.57052606  0.01734861  0.71355566     0.11700
H1048       H  0.56895787  0.04587499  0.67897813     0.12900
H1049       H  0.55781556  0.05484141  0.63558481     0.11900
H1050       H  0.53638578  0.95105070  0.62087867     0.09000
H1051       H  0.52312148  0.96228096  0.57920976     0.12200
H1052       H  0.54048703  0.04158544  0.59531724     0.14100
C1053       C  0.29638897  0.64923306  0.49609634    -0.01400
C1054       C  0.29507207  0.64832457  0.46965824    -0.09400
C1055       C  0.31121675  0.66350502  0.45507571    -0.18200
C1056       C  0.32972172  0.68004009  0.46643673     0.04100
C1057       C  0.33152107  0.68055679  0.49323968     0.18300
C1058       C  0.31472385  0.66545372  0.50779228    -0.19700
C1059       C  0.35037430  0.69577847  0.50528010    -0.20900
C1060       C  0.36793498  0.70998108  0.49120908    -0.19500
C1061       C  0.36668876  0.70974538  0.46479284     0.19700
C1062       C  0.34709195  0.69533364  0.45206759     0.01800
C1063       C  0.34599680  0.69650655  0.42543575    -0.14200
C1064       C  0.36476897  0.70971221  0.41193893    -0.11900
C1065       C  0.38498108  0.72245522  0.42444871     0.01400
C1066       C  0.38538587  0.72318960  0.45091931    -0.24100
H1067       H  0.28178958  0.63533567  0.46000936     0.09400
H1068       H  0.30913887  0.66125876  0.43492195     0.12900
H1069       H  0.31597624  0.66629900  0.52822637     0.11700
H1070       H  0.35190756  0.69626334  0.52569464     0.12900
H1071       H  0.38272081  0.72105928  0.50104565     0.11900
H1072       H  0.33109740  0.68718807  0.41439939     0.09000
H1073       H  0.36386443  0.70944790  0.39148992     0.12200
H1074       H  0.40101416  0.73311623  0.46067553     0.14100
C1075       C  0.45128731  0.79022447  0.40849558    -0.01400
C1076       C  0.45895143  0.79523457  0.43339684    -0.09400
C1077       C  0.46828780  0.81935499  0.44075124    -0.18200
C1078       C  0.46971289  0.83948124  0.42337091     0.04100
C1079       C  0.46215932  0.83409858  0.39795502     0.18300
C1080       C  0.45349766  0.80947070  0.39066597    -0.19700
C1081       C  0.46237311  0.85354289  0.38022415    -0.20900
C1082       C  0.46890417  0.87849421  0.38741465    -0.19500
C1083       C  0.47584489  0.88448481  0.41238890     0.19700
C1084       C  0.47720642  0.86497321  0.43055281     0.01800
C1085       C  0.48526814  0.87202286  0.45528419    -0.14200
C1086       C  0.48982188  0.89761190  0.46213505    -0.11900
C1087       C  0.48661066  0.91691887  0.44459333     0.01400
C1088       C  0.48052970  0.91007700  0.41951773    -0.24100
H1089       H  0.45739981  0.78040312  0.44733246     0.09400
H1090       H  0.47342968  0.82180549  0.46034390     0.12900
H1091       H  0.44733865  0.80554086  0.37140291     0.11700
H1092       H  0.45669635  0.84957703  0.36084075     0.12900
H1093       H  0.46808372  0.89329594  0.37343770     0.11900
H1094       H  0.48774388  0.85829989  0.46991510     0.09000
H1095       H  0.49476695  0.90234298  0.48155072     0.12200
H1096       H  0.47848865  0.92483636  0.40562595     0.14100
C1097       C  0.56051897  0.34510335  0.53513734    -0.01400
C1098       C  0.57838213  0.36099335  0.54777333    -0.09400
C1099       C  0.59810778  0.37321724  0.53452061    -0.18200
C1100       C  0.60025721  0.37023052  0.50797154     0.04100
C1101       C  0.58268428  0.35317853  0.49546633     0.18300
C1102       C  0.56326368  0.34067334  0.50911234    -0.19700
C1103       C  0.58387544  0.34949780  0.46925122    -0.20900
C1104       C  0.60142617  0.36330790  0.45492870    -0.19500
C1105       C  0.61825535  0.38103497  0.46650730     0.19700
C1106       C  0.61841988  0.38430905  0.49324937     0.01800
C1107       C  0.63609797  0.40224930  0.50394184    -0.14200
C1108       C  0.65192413  0.41719127  0.48864358    -0.11900
C1109       C  0.65083645  0.41464517  0.46228397     0.01400
C1110       C  0.63439105  0.39609949  0.45137947    -0.24100
H1111       H  0.57679200  0.36433005  0.56797757     0.09400
H1112       H  0.61087807  0.38539505  0.54552257     0.12900
H1113       H  0.54935480  0.32853163  0.49919670     0.11700
H1114       H  0.57065195  0.33636369  0.45966958     0.12900
H1115       H  0.60141088  0.36055058  0.43458194     0.11900
H1116       H  0.63778154  0.40563771  0.52400550     0.09000
H1117       H  0.66444580  0.43146838  0.49750251     0.12200
H1118       H  0.63380692  0.39374589  0.43098741     0.14100
C1119       C  0.46952065  0.14416266  0.51779007    -0.01400
C1120       C  0.46868253  0.15204617  0.54318869    -0.09400
C1121       C  0.47243703  0.17769026  0.55009674    -0.18200
C1122       C  0.47780946  0.19628363  0.53170725     0.04100
C1123       C  0.47840543  0.18814243  0.50589836     0.18300
C1124       C  0.47377407  0.16238759  0.49918029    -0.19700
C1125       C  0.48447749  0.20556925  0.48700368    -0.20900
C1126       C  0.49060625  0.23086049  0.49321089    -0.19500
C1127       C  0.49035949  0.23942820  0.51842219     0.19700
C1128       C  0.48341654  0.22244746  0.53802577     0.01800
C1129       C  0.48275193  0.23236705  0.56310408    -0.14200
C1130       C  0.48956410  0.25781335  0.56851425    -0.11900
C1131       C  0.49733966  0.27409395  0.54922545     0.01400
C1132       C  0.49734661  0.26487736  0.52418142    -0.24100
H1133       H  0.46540762  0.13820974  0.55785652     0.09400
H1134       H  0.47177759  0.18216715  0.57003014     0.12900
H1135       H  0.47481429  0.15629200  0.47950194     0.11700
H1136       H  0.48502383  0.19947190  0.46732112     0.12900
H1137       H  0.49573682  0.24378087  0.47818870     0.11900
H1138       H  0.47715847  0.22096998  0.57898263     0.09000
H1139       H  0.48939349  0.26463570  0.58797012     0.12200
H1140       H  0.50292224  0.27760130  0.50911615     0.14100
C1141       C  0.42921136  0.12367691  0.17122888    -0.01400
C1142       C  0.45579088  0.12057217  0.17164762    -0.09400
C1143       C  0.47198270  0.13561150  0.15665938    -0.18200
C1144       C  0.46196955  0.15449741  0.14087351     0.04100
C1145       C  0.43495867  0.15796831  0.14116148     0.18300
C1146       C  0.41893586  0.14250108  0.15608248    -0.19700
C1147       C  0.42400603  0.17660802  0.12627967    -0.20900
C1148       C  0.43923110  0.19169963  0.11074098    -0.19500
C1149       C  0.46578825  0.18845412  0.10958405     0.19700
C1150       C  0.47763216  0.16990828  0.12467542     0.01800
C1151       C  0.50455599  0.16749822  0.12264591    -0.14200
C1152       C  0.51899258  0.18281330  0.10632178    -0.11900
C1153       C  0.50719629  0.20097137  0.09135030     0.01400
C1154       C  0.48050385  0.20357260  0.09315933    -0.24100
H1155       H  0.46399759  0.10584992  0.18302348     0.09400
H1156       H  0.49218424  0.13182388  0.15767357     0.12900
H1157       H  0.39831421  0.14485790  0.15571965     0.11700
H1158       H  0.40346553  0.17943870  0.12654004     0.12900
H1159       H  0.43011763  0.20589604  0.09937017     0.11900
H1160       H  0.51504514  0.15394362  0.13339131     0.09000
H1161       H  0.53958420  0.18053765  0.10561574     0.12200
H1162       H  0.47094009  0.21705874  0.08131957     0.14100
C1163       C  0.66812939  0.15101233  0.94459731    -0.01400
C1164       C  0.67078842  0.14837626  0.97072788    -0.09400
C1165       C  0.65391216  0.16021489  0.98756174    -0.18200
C1166       C  0.63365336  0.17517145  0.97873426     0.04100
C1167       C  0.63149526  0.17835865  0.95219802     0.18300
C1168       C  0.64854607  0.16621952  0.93548313    -0.19700
C1169       C  0.61217810  0.19343827  0.94244957    -0.20900
C1170       C  0.59464624  0.20517957  0.95846653    -0.19500
C1171       C  0.59579565  0.20183067  0.98458377     0.19700
C1172       C  0.61529730  0.18681810  0.99518538     0.01800
C1173       C  0.61517472  0.18371194  0.02170679    -0.14200
C1174       C  0.59625551  0.19475221  0.03691046    -0.11900
C1175       C  0.57714258  0.20946151  0.02627371     0.01400
C1176       C  0.57718234  0.21307954  0.00012564    -0.24100
H1177       H  0.68564557  0.13652236  0.97821349     0.09400
H1178       H  0.65716022  0.15712873  0.00733344     0.12900
H1179       H  0.64657308  0.16858000  0.91528465     0.11700
H1180       H  0.61052874  0.19606363  0.92227040     0.12900
H1181       H  0.57982677  0.21665528  0.95032452     0.11900
H1182       H  0.62919037  0.17259734  0.03125909     0.09000
H1183       H  0.59664926  0.19191743  0.05711550     0.12200
H1184       H  0.56220268  0.22419543  0.99174118     0.14100
C1185       C  0.48980716  0.40935508  0.01120740    -0.01400
C1186       C  0.48797902  0.40287192  0.03667841    -0.09400
C1187       C  0.49327575  0.37811253  0.04427016    -0.18200
C1188       C  0.50051592  0.35900423  0.02645602     0.04100
C1189       C  0.50174874  0.36568153  0.00058170     0.18300
C1190       C  0.49635465  0.39052319  0.99327686    -0.19700
C1191       C  0.50875855  0.34767212  0.98207940    -0.20900
C1192       C  0.51500061  0.32309660  0.98872650    -0.19500
C1193       C  0.51428008  0.31593737  0.01402076     0.19700
C1194       C  0.50686715  0.33364818  0.03329315     0.01800
C1195       C  0.50637964  0.32519675  0.05851281    -0.14200
C1196       C  0.51340104  0.30037994  0.06431149    -0.11900
C1197       C  0.52104288  0.28319488  0.04524647     0.01400
C1198       C  0.52110208  0.29108991  0.02011179    -0.24100
H1199       H  0.48300493  0.41713556  0.05088455     0.09400
H1200       H  0.49181984  0.37463803  0.06421114     0.12900
H1201       H  0.49750103  0.39526561  0.97344891     0.11700
H1202       H  0.50966541  0.35270363  0.96233079     0.12900
H1203       H  0.52059907  0.30963359  0.97397948     0.11900
H1204       H  0.50087683  0.33733595  0.07420628     0.09000
H1205       H  0.51331021  0.29478368  0.08388880     0.12200
H1206       H  0.52638240  0.27775438  0.00511967     0.14100
C1207       C  0.07191581  0.32938316  0.90647479    -0.01400
C1208       C  0.09055550  0.34644163  0.89729664    -0.09400
C1209       C  0.10836131  0.35825840  0.91365344    -0.18200
C1210       C  0.10773677  0.35364908  0.93992599     0.04100
C1211       C  0.08849193  0.33655863  0.94909092     0.18300
C1212       C  0.07114257  0.32440931  0.93236307    -0.19700
C1213       C  0.08626629  0.33208940  0.97497991    -0.20900
C1214       C  0.10239541  0.34471310  0.99215285    -0.19500
C1215       C  0.12156328  0.36163931  0.98380886     0.19700
C1216       C  0.12498330  0.36586146  0.95753016     0.01800
C1217       C  0.14540684  0.38225319  0.95009945    -0.14200
C1218       C  0.16099803  0.39473559  0.96804091    -0.11900
C1219       C  0.15675855  0.39143405  0.99392051     0.01400
C1220       C  0.13719000  0.37459137  0.00165696    -0.24100
H1221       H  0.09138446  0.35059203  0.87734460     0.09400
H1222       H  0.12199662  0.37130012  0.90524201     0.12900
H1223       H  0.05639299  0.31160556  0.93962839     0.11700
H1224       H  0.07159953  0.31910191  0.98205333     0.12900
H1225       H  0.09982460  0.34123914  0.01212301     0.11900
H1226       H  0.14979711  0.38587453  0.93058171     0.09000
H1227       H  0.17601155  0.40767724  0.96162417     0.12200
H1228       H  0.13408654  0.37163745  0.02166191     0.14100
C1229       C  0.08549098  0.53145691  0.14825703    -0.01400
C1230       C  0.08536418  0.50515381  0.15260006    -0.09400
C1231       C  0.10098495  0.48891548  0.13838678    -0.18200
C1232       C  0.11721684  0.49857965  0.11920306     0.04100
C1233       C  0.11833448  0.52548371  0.11597252     0.18300
C1234       C  0.10252939  0.54154487  0.13038481    -0.19700
C1235       C  0.13478052  0.53620097  0.09796753    -0.20900
C1236       C  0.14964814  0.52069584  0.08245963    -0.19500
C1237       C  0.14808016  0.49409608  0.08430661     0.19700
C1238       C  0.13192278  0.48257562  0.10274505     0.01800
C1239       C  0.13046648  0.45554911  0.10319284    -0.14200
C1240       C  0.14399804  0.44070364  0.08566553    -0.11900
C1241       C  0.15976103  0.45225818  0.06761598     0.01400
C1242       C  0.16205949  0.47891204  0.06727672    -0.24100
H1243       H  0.07250922  0.49696407  0.16651397     0.09400
H1244       H  0.09967823  0.46890005  0.14266255     0.12900
H1245       H  0.10324485  0.56199258  0.12746776     0.11700
H1246       H  0.13589569  0.55671508  0.09562524     0.12900
H1247       H  0.16197545  0.52955349  0.06847594     0.11900
H1248       H  0.11855050  0.44531199  0.11638904     0.09000
H1249       H  0.14214054  0.42006951  0.08616474     0.12200
H1250       H  0.17409833  0.48784187  0.05307611     0.14100
C1251       C  0.37224511  0.46181590  0.00143313    -0.01400
C1252       C  0.36346911  0.46066821  0.02643580    -0.09400
C1253       C  0.33818344  0.45299493  0.03173016    -0.18200
C1254       C  0.32082585  0.44636639  0.01201893     0.04100
C1255       C  0.33023194  0.44673422  0.98680416     0.18300
C1256       C  0.35569069  0.45399119  0.98184460    -0.19700
C1257       C  0.31395261  0.44085210  0.96648515    -0.20900
C1258       C  0.28814492  0.43543943  0.97055001    -0.19500
C1259       C  0.27810467  0.43528973  0.99506622     0.19700
C1260       C  0.29434950  0.44016565  0.01622906     0.01800
C1261       C  0.28324213  0.43897598  0.04057688    -0.14200
C1262       C  0.25703322  0.43392873  0.04367148    -0.11900
C1263       C  0.24093394  0.43008216  0.02270301     0.01400
C1264       C  0.25175811  0.43059015  0.99845022    -0.24100
H1265       H  0.37583339  0.46673386  0.04191956     0.09400
H1266       H  0.33258805  0.45327577  0.05134362     0.12900
H1267       H  0.36232624  0.45456624  0.96241827     0.11700
H1268       H  0.32109833  0.44107144  0.94723444     0.12900
H1269       H  0.27590537  0.43152326  0.95436805     0.11900
H1270       H  0.29428363  0.44179322  0.05760226     0.09000
H1271       H  0.24935174  0.43299456  0.06266831     0.12200
H1272       H  0.23956526  0.42796092  0.98202694     0.14100
C1273       C  0.46911244  0.85211249  0.87362805    -0.01400
C1274       C  0.48052609  0.87426434  0.88417694    -0.09400
C1275       C  0.49518066  0.89080717  0.86947451    -0.18200
C1276       C  0.49890860  0.88583865  0.84340312     0.04100
C1277       C  0.48852531  0.86263855  0.83294431     0.18300
C1278       C  0.47368271  0.84603006  0.84807034    -0.19700
C1279       C  0.49289532  0.85636594  0.80745008    -0.20900
C1280       C  0.50750271  0.87255592  0.79221131    -0.19500
C1281       C  0.51750072  0.89580596  0.80186192     0.19700
C1282       C  0.51279388  0.90298784  0.82746911     0.01800
C1283       C  0.52173916  0.92729537  0.83594719    -0.14200
C1284       C  0.53576913  0.94327070  0.82009790    -0.11900
C1285       C  0.54186796  0.93567626  0.79524898     0.01400
C1286       C  0.53217895  0.91196635  0.78611924    -0.24100
H1287       H  0.47790280  0.87895364  0.90403900     0.09400
H1288       H  0.50346963  0.90724963  0.87917264     0.12900
H1289       H  0.46510498  0.82878291  0.83981525     0.11700
H1290       H  0.48514548  0.83870998  0.79928584     0.12900
H1291       H  0.51077484  0.86697024  0.77265853     0.11900
H1292       H  0.51780258  0.93480554  0.85462644     0.09000
H1293       H  0.54170349  0.96189785  0.82745867     0.12200
H1294       H  0.53639355  0.90583709  0.76690171     0.14100
C1295       C  0.39775417  0.84872425  0.93663521    -0.01400
C1296       C  0.40386851  0.87252855  0.94783805    -0.09400
C1297       C  0.38580094  0.88572977  0.96221905    -0.18200
C1298       C  0.36078398  0.87548741  0.96597866     0.04100
C1299       C  0.35474190  0.85117187  0.95489907     0.18300
C1300       C  0.37313900  0.83810768  0.94039604    -0.19700
C1301       C  0.33035662  0.84005212  0.95831928    -0.20900
C1302       C  0.31184959  0.85244818  0.97278385    -0.19500
C1303       C  0.31718866  0.87637332  0.98404532     0.19700
C1304       C  0.34166143  0.88836394  0.98051708     0.01800
C1305       C  0.34593804  0.91276858  0.99168066    -0.14200
C1306       C  0.32713915  0.92433432  0.00638230    -0.11900
C1307       C  0.30342921  0.91206847  0.01083407     0.01400
C1308       C  0.29833126  0.88827609  0.99909533    -0.24100
H1309       H  0.42288111  0.88094464  0.94569303     0.09400
H1310       H  0.39216366  0.90380702  0.97026837     0.12900
H1311       H  0.36812131  0.81978638  0.93165460     0.11700
H1312       H  0.32561083  0.82153000  0.94987925     0.12900
H1313       H  0.29324610  0.84321088  0.97523922     0.11900
H1314       H  0.36358090  0.92353472  0.98944147     0.09000
H1315       H  0.33129890  0.94314307  0.01445114     0.12200
H1316       H  0.27999983  0.87870920  0.00223737     0.14100
C1317       C  0.44057289  0.76763014  0.91005066    -0.01400
C1318       C  0.41874303  0.75197481  0.91342632    -0.09400
C1319       C  0.42095699  0.72606870  0.91844416    -0.18200
C1320       C  0.44527302  0.71478201  0.92021777     0.04100
C1321       C  0.46733356  0.73033728  0.91535762     0.18300
C1322       C  0.46483204  0.75650403  0.91055390    -0.19700
C1323       C  0.49178121  0.71975014  0.91566510    -0.20900
C1324       C  0.49482623  0.69403302  0.92084122    -0.19500
C1325       C  0.47357388  0.67844312  0.92663671     0.19700
C1326       C  0.44849499  0.68869721  0.92676007     0.01800
C1327       C  0.42783114  0.67262887  0.93425323    -0.14200
C1328       C  0.43194400  0.64756112  0.94141294    -0.11900
C1329       C  0.45656687  0.63742438  0.94077224     0.01400
C1330       C  0.47729561  0.65281233  0.93300252    -0.24100
H1331       H  0.39973111  0.75985768  0.91234694     0.09400
H1332       H  0.40325410  0.71538205  0.92071495     0.12900
H1333       H  0.48188197  0.76836272  0.90798040     0.11700
H1334       H  0.50868341  0.73144142  0.91183448     0.12900
H1335       H  0.51401026  0.68642320  0.92086705     0.11900
H1336       H  0.40835851  0.67906043  0.93551419     0.09000
H1337       H  0.41570523  0.63595112  0.94746719     0.12200
H1338       H  0.49646394  0.64512196  0.93291439     0.14100
C1339       C  0.78917614  0.64983281  0.93477765    -0.01400
C1340       C  0.80712589  0.66722838  0.92495884    -0.09400
C1341       C  0.82418530  0.68064472  0.94085409    -0.18200
C1342       C  0.82415910  0.67663140  0.96721464     0.04100
C1343       C  0.80541770  0.65940588  0.97711575     0.18300
C1344       C  0.78789981  0.64661119  0.96095923    -0.19700
C1345       C  0.80496860  0.65418007  0.00293316    -0.20900
C1346       C  0.82336577  0.66495078  0.01906354    -0.19500
C1347       C  0.84233696  0.68164408  0.00987361     0.19700
C1348       C  0.84260616  0.68829713  0.98395072     0.01800
C1349       C  0.86162502  0.70598939  0.97587126    -0.14200
C1350       C  0.88004197  0.71594576  0.99261594    -0.11900
C1351       C  0.88025513  0.70860598  0.01788579     0.01400
C1352       C  0.86121267  0.69157597  0.02644264    -0.24100
H1353       H  0.80831555  0.67004431  0.90476860     0.09400
H1354       H  0.83772075  0.69331268  0.93179434     0.12900
H1355       H  0.77423073  0.63291011  0.96862250     0.11700
H1356       H  0.79070126  0.64111149  0.01059595     0.12900
H1357       H  0.82287802  0.66001426  0.03884327     0.11900
H1358       H  0.86284602  0.71250781  0.95673466     0.09000
H1359       H  0.89458135  0.72909104  0.98560796     0.12200
H1360       H  0.86103925  0.68615361  0.04610423     0.14100
C1361       C  0.78640696  0.58326849  0.86630573    -0.01400
C1362       C  0.77666944  0.57688531  0.84232983    -0.09400
C1363       C  0.78956883  0.55983632  0.82627860    -0.18200
C1364       C  0.81261896  0.54842449  0.83391310     0.04100
C1365       C  0.82219475  0.55491947  0.85838693     0.18300
C1366       C  0.80918123  0.57218411  0.87413819    -0.19700
C1367       C  0.84466587  0.54405101  0.86717518    -0.20900
C1368       C  0.85810264  0.52694354  0.85209365    -0.19500
C1369       C  0.84943445  0.52032471  0.82782749     0.19700
C1370       C  0.82655382  0.53084123  0.81830354     0.01800
C1371       C  0.81885959  0.52339102  0.79356243    -0.14200
C1372       C  0.83344359  0.50643038  0.77893116    -0.11900
C1373       C  0.85603584  0.49626352  0.78846300     0.01400
C1374       C  0.86380974  0.50337218  0.81296490    -0.24100
H1375       H  0.75904845  0.58522477  0.83593221     0.09400
H1376       H  0.78097337  0.55588883  0.80810424     0.12900
H1377       H  0.81653512  0.57658411  0.89289838     0.11700
H1378       H  0.85194755  0.54885725  0.88586240     0.12900
H1379       H  0.87549928  0.51890921  0.85943898     0.11900
H1380       H  0.80176387  0.53042610  0.78494721     0.09000
H1381       H  0.82693726  0.50115205  0.76009969     0.12200
H1382       H  0.88156402  0.49615069  0.82036515     0.14100
C1383       C  0.57706960  0.57567999  0.94791016    -0.01400
C1384       C  0.58299671  0.57909599  0.92234646    -0.09400
C1385       C  0.60803783  0.58514232  0.91474136    -0.18200
C1386       C  0.62808980  0.58797031  0.93257899     0.04100
C1387       C  0.62174149  0.58548086  0.95855810     0.18300
C1388       C  0.59653138  0.57943938  0.96591829    -0.19700
C1389       C  0.64064415  0.58868150  0.97710010    -0.20900
C1390       C  0.66585198  0.59434740  0.97041958    -0.19500
C1391       C  0.67281843  0.59666613  0.94502286     0.19700
C1392       C  0.65415932  0.59320970  0.92566431     0.01800
C1393       C  0.66252255  0.59489291  0.90028247    -0.14200
C1394       C  0.68816830  0.60043648  0.89448055    -0.11900
C1395       C  0.70628178  0.60451783  0.91368738     0.01400
C1396       C  0.69845593  0.60234807  0.93890802    -0.24100
H1397       H  0.56835343  0.57649990  0.90801491     0.09400
H1398       H  0.61108562  0.58734276  0.89476273     0.12900
H1399       H  0.59221683  0.57717448  0.98581035     0.11700
H1400       H  0.63589502  0.58681066  0.99693577     0.12900
H1401       H  0.68003453  0.59681971  0.98523380     0.11900
H1402       H  0.64976927  0.59192001  0.88448653     0.09000
H1403       H  0.69379933  0.60185378  0.87483740     0.12200
H1404       H  0.71249182  0.60471707  0.95388182     0.14100
C1405       C  0.28176905  0.58729964  0.56617725    -0.01400
C1406       C  0.27729504  0.56088276  0.56756539    -0.09400
C1407       C  0.28767673  0.54692708  0.58709951    -0.18200
C1408       C  0.30311657  0.55902211  0.60591364     0.04100
C1409       C  0.30667646  0.58599803  0.60496033     0.18300
C1410       C  0.29604570  0.59978655  0.58524280    -0.19700
C1411       C  0.32145331  0.59900576  0.62328196    -0.20900
C1412       C  0.33397701  0.58566332  0.64181921    -0.19500
C1413       C  0.33210571  0.55898823  0.64240632     0.19700
C1414       C  0.31607139  0.54528355  0.62494007     0.01800
C1415       C  0.31475400  0.51834898  0.62655609    -0.14200
C1416       C  0.33036440  0.50555439  0.64329832    -0.11900
C1417       C  0.34741489  0.51910890  0.65924513     0.01400
C1418       C  0.34730807  0.54586789  0.65949277    -0.24100
H1419       H  0.26632092  0.55078280  0.55303352     0.09400
H1420       H  0.28370788  0.52665305  0.58660372     0.12900
H1421       H  0.29914654  0.62030701  0.58454529     0.11700
H1422       H  0.32394080  0.61959739  0.62284836     0.12900
H1423       H  0.34592415  0.59623082  0.65527065     0.11900
H1424       H  0.30256496  0.50655146  0.61455729     0.09000
H1425       H  0.32967138  0.48485582  0.64324624     0.12200
H1426       H  0.36043770  0.55651910  0.67177534     0.14100
C1427       C  0.41691235  0.45528410  0.65941369    -0.01400
C1428       C  0.42624748  0.46111028  0.63538610    -0.09400
C1429       C  0.43968992  0.44319572  0.62110237    -0.18200
C1430       C  0.44401793  0.41849019  0.63031306     0.04100
C1431       C  0.43510330  0.41282801  0.65503878     0.18300
C1432       C  0.42181285  0.43127426  0.66940629    -0.19700
C1433       C  0.43926742  0.38872354  0.66509419    -0.20900
C1434       C  0.45206159  0.37006497  0.65108846    -0.19500
C1435       C  0.46095349  0.37501118  0.62664282     0.19700
C1436       C  0.45689783  0.39928128  0.61586692     0.01800
C1437       C  0.46584943  0.40327663  0.59101092    -0.14200
C1438       C  0.47913302  0.38443889  0.57785201    -0.11900
C1439       C  0.48389850  0.36090572  0.58877675     0.01400
C1440       C  0.47422514  0.35600130  0.61297450    -0.24100
H1441       H  0.42309973  0.47975512  0.62756844     0.09400
H1442       H  0.44631734  0.44935351  0.60289497     0.12900
H1443       H  0.41465793  0.42673909  0.68807611     0.11700
H1444       H  0.43256371  0.38425883  0.68392668     0.12900
H1445       H  0.45504573  0.35163971  0.65945102     0.11900
H1446       H  0.46307243  0.42077531  0.58114569     0.09000
H1447       H  0.48595528  0.38838398  0.55894180     0.12200
H1448       H  0.47778041  0.33773201  0.62145264     0.14100
C1449       C  0.40046879  0.50877525  0.73718381    -0.01400
C1450       C  0.38101414  0.51189166  0.75518578    -0.09400
C1451       C  0.38688780  0.51804183  0.78026821    -0.18200
C1452       C  0.41263398  0.52130707  0.78824282     0.04100
C1453       C  0.43230575  0.51904683  0.76969798     0.18300
C1454       C  0.42609647  0.51271063  0.74450115    -0.19700
C1455       C  0.45805492  0.52282169  0.77647413    -0.20900
C1456       C  0.46477215  0.52828294  0.80143408    -0.19500
C1457       C  0.44593594  0.52974715  0.82029367     0.19700
C1458       C  0.41957168  0.52632881  0.81396795     0.01800
C1459       C  0.40135914  0.52728245  0.83379856    -0.14200
C1460       C  0.40905786  0.53060356  0.85883969    -0.11900
C1461       C  0.43505111  0.53354529  0.86504420     0.01400
C1462       C  0.45337340  0.53373587  0.84559941    -0.24100
H1463       H  0.36108669  0.50896726  0.74995570     0.09400
H1464       H  0.37079831  0.51997248  0.79292659     0.12900
H1465       H  0.44123931  0.51083724  0.73052312     0.11700
H1466       H  0.47313421  0.52132350  0.76240147     0.12900
H1467       H  0.48489592  0.53085063  0.80610365     0.11900
H1468       H  0.38105156  0.52476751  0.83073983     0.09000
H1469       H  0.39453052  0.53040991  0.87353054     0.12200
H1470       H  0.47356663  0.53565527  0.85026668     0.14100
C1471       C  0.58026845  0.53967365  0.29994240    -0.01400
C1472       C  0.59800199  0.55379042  0.31459100    -0.09400
C1473       C  0.61347383  0.54187943  0.33200537    -0.18200
C1474       C  0.61160937  0.51521425  0.33553550     0.04100
C1475       C  0.59405176  0.50080130  0.32012521     0.18300
C1476       C  0.57866578  0.51308792  0.30246554    -0.19700
C1477       C  0.59167317  0.47430289  0.32275439    -0.20900
C1478       C  0.60622002  0.46180323  0.34050985    -0.19500
C1479       C  0.62334591  0.47551582  0.35624338     0.19700
C1480       C  0.62632599  0.50242059  0.35396324     0.01800
C1481       C  0.64360441  0.51541177  0.37053910    -0.14200
C1482       C  0.65711203  0.50231854  0.38871558    -0.11900
C1483       C  0.65403995  0.47585414  0.39106053     0.01400
C1484       C  0.63725043  0.46253089  0.37454646    -0.24100
H1485       H  0.59971385  0.57432841  0.31273231     0.09400
H1486       H  0.62652186  0.55418624  0.34252427     0.12900
H1487       H  0.56479121  0.50209247  0.29131130     0.11700
H1488       H  0.57836694  0.46317564  0.31108323     0.12900
H1489       H  0.60384026  0.44128733  0.34214291     0.11900
H1490       H  0.64685097  0.53577654  0.37030075     0.09000
H1491       H  0.66954326  0.51315833  0.40149711     0.12200
H1492       H  0.63487333  0.44199387  0.37604787     0.14100
C1493       C  0.51552603  0.60728487  0.29196715    -0.01400
C1494       C  0.51088798  0.63038090  0.28003032    -0.09400
C1495       C  0.49854842  0.65028358  0.29300518    -0.18200
C1496       C  0.49054571  0.64759016  0.31843261     0.04100
C1497       C  0.49436375  0.62364729  0.32990171     0.18300
C1498       C  0.50653067  0.60393225  0.31664814    -0.19700
C1499       C  0.48630543  0.61946249  0.35470509    -0.20900
C1500       C  0.47446309  0.63862370  0.36856208    -0.19500
C1501       C  0.47070367  0.66251871  0.35804522     0.19700
C1502       C  0.47889231  0.66759516  0.33295933     0.01800
C1503       C  0.47530614  0.69251969  0.32379710    -0.14200
C1504       C  0.46342482  0.71128073  0.33875230    -0.11900
C1505       C  0.45463705  0.70565682  0.36305243     0.01400
C1506       C  0.45872798  0.68137910  0.37264119    -0.24100
H1507       H  0.51747320  0.63334261  0.26086925     0.09400
H1508       H  0.49571504  0.66757211  0.28275173     0.12900
H1509       H  0.50925555  0.58581756  0.32575463     0.11700
H1510       H  0.48918717  0.60121062  0.36346967     0.12900
H1511       H  0.46832309  0.63476141  0.38771817     0.11900
H1512       H  0.48152398  0.69806803  0.30522950     0.09000
H1513       H  0.46061252  0.73005993  0.33113109     0.12200
H1514       H  0.45257009  0.67716611  0.39173486     0.14100
C1515       C  0.50666070  0.51770193  0.08911206    -0.01400
C1516       C  0.53234409  0.51858492  0.09679141    -0.09400
C1517       C  0.53878079  0.52288687  0.12213122    -0.18200
C1518       C  0.51959573  0.52716647  0.14062935     0.04100
C1519       C  0.49351305  0.52536766  0.13282196     0.18300
C1520       C  0.48731639  0.52027341  0.10736665    -0.19700
C1521       C  0.47375163  0.52959642  0.15027500    -0.20900
C1522       C  0.47928570  0.53641298  0.17519281    -0.19500
C1523       C  0.50471823  0.53900092  0.18334413     0.19700
C1524       C  0.52529130  0.53395968  0.16635295     0.01800
C1525       C  0.55061462  0.53652171  0.17577514    -0.14200
C1526       C  0.55522311  0.54423443  0.20080734    -0.11900
C1527       C  0.53486635  0.54973928  0.21724599     0.01400
C1528       C  0.50966181  0.54689435  0.20839648    -0.24100
H1529       H  0.54759747  0.51633609  0.08301187     0.09400
H1530       H  0.55895442  0.52348218  0.12647488     0.12900
H1531       H  0.46738868  0.51972498  0.10152906     0.11700
H1532       H  0.45384758  0.52816391  0.14448325     0.12900
H1533       H  0.46353278  0.54002344  0.18811708     0.11900
H1534       H  0.56728119  0.53287336  0.16426825     0.09000
H1535       H  0.57486854  0.54633185  0.20724078     0.12200
H1536       H  0.49379834  0.55069036  0.22115101     0.14100
loop_ 
_geom_bond_atom_site_label_1 
_geom_bond_atom_site_label_2 
_geom_bond_distance 
_geom_bond_site_symmetry_2 
_ccdc_geom_bond_type 
C1            C2   1.410       .  A
C1            C6   1.408       .  A
C1         C1527   1.484       .  S
C2            C3   1.404       .  A
C2            H7   1.083       .  S
C3            C4   1.402       .  A
C3         C1493   1.485       .  S
C4            C5   1.399       .  A
C4            H8   1.084       .  S
C5            C6   1.403       .  A
C5         C1471   1.481       .  S
C6            H9   1.084       .  S
C10          C11   1.406       .  A
C10          C15   1.407       .  A
C10        C1449   1.482       .  S
C11          C12   1.402       .  A
C11          H16   1.084       .  S
C12          C13   1.402       .  A
C12        C1427   1.479       .  S
C13          C14   1.403       .  A
C13          H17   1.084       .  S
C14          C15   1.404       .  A
C14        C1417   1.484       .  S
C15          H18   1.083       .  S
C19          C20   1.405       .  A
C19          C24   1.407       .  A
C19        C1395   1.483       .  S
C20          C21   1.403       .  A
C20          H25   1.084       .  S
C21          C22   1.404       .  A
C21        C1361   1.483       .  S
C22          C23   1.403       .  A
C22          H26   1.084       .  S
C23          C24   1.402       .  A
C23        C1339   1.481       .  S
C24          H27   1.084       .  S
C28          C29   1.408       .  A
C28          C33   1.411       .  A
C28        C1317   1.489       .  S
C29          C30   1.401       .  A
C29          H34   1.083       .  S
C30          C31   1.402       .  A
C30        C1295   1.487       .  S
C31          C32   1.404       .  A
C31          H35   1.084       .  S
C32          C33   1.407       .  A
C32        C1273   1.486       .  S
C33          H36   1.083       .  S
C37          C38   1.408       .  A
C37          C42   1.404       .  A
C37        C1263   1.487       .  S
C38          C39   1.405       .  A
C38          H43   1.083   1_554  S
C39          C40   1.404       .  A
C39        C1219   1.483   1_554  S
C40          C41   1.402       .  A
C40          H44   1.084       .  S
C41          C42   1.400       .  A
C41        C1241   1.475       .  S
C42          H45   1.083       .  S
C46          C47   1.401       .  A
C46          C51   1.404       .  A
C46        C1197   1.484       .  S
C47          C48   1.399       .  A
C47          H52   1.084       .  S
C48          C49   1.404       .  A
C48        C1175   1.480       .  S
C49          C50   1.409       .  A
C49          H53   1.083       .  S
C50          C51   1.409       .  A
C50        C1153   1.492       .  S
C51          H54   1.082       .  S
Zr55         O56   2.442       .  S
Zr55         O57   2.437       .  S
Zr55         O58   2.446       .  S
Zr55         O61   2.441       .  S
Zr55         O63   2.384   1_554  S
Zr55         O64   2.386       .  S
Zr55         O65   2.411   1_554  S
Zr55         O66   2.399       .  S
O56         H112   0.990       .  S
O56         H120   0.990       .  S
O57          C77   1.284       .  A
O58          C79   1.285   1_554  A
O59         Zr69   2.422       .  S
O59          C78   1.283       .  A
O60         Zr68   2.411       .  S
O60          C79   1.281       .  A
O61          C78   1.286       .  A
O62         Zr70   2.405       .  S
O62          C77   1.280   1_556  A
O63         Zr68   2.390       .  S
O63         Zr70   2.377       .  S
O64         Zr69   2.389       .  S
O64         Zr70   2.382   1_554  S
O64          H99   0.965       .  S
O65         Zr68   2.398       .  S
O65         Zr85   2.392       .  S
O65         H102   0.966       .  S
O66         Zr69   2.388       .  S
O66         Zr85   2.394   1_554  S
Zr67         O92   2.442       .  S
Zr67         O86   2.441       .  S
Zr67         O94   2.444       .  S
Zr67         O82   2.447       .  S
Zr67         O73   2.404       .  S
Zr67         O74   2.407       .  S
Zr67         O75   2.381       .  S
Zr67         O76   2.384       .  S
Zr68         O87   2.437       .  S
Zr68         O80   2.436       .  S
Zr68         O81   2.414       .  S
Zr68         O74   2.392       .  S
Zr68         O75   2.390       .  S
Zr69         O71   2.434       .  S
Zr69         O93   2.439       .  S
Zr69         O95   2.409   1_554  S
Zr69         O73   2.396   1_554  S
Zr69         O76   2.393   1_554  S
Zr70         O96   2.435       .  S
Zr70         O97   2.436       .  S
Zr70         O72   2.438       .  S
Zr70         O73   2.392       .  S
Zr70         O74   2.383       .  S
O71         H108   0.990       .  S
O72         H103   0.990       .  S
O72         H117   0.990       .  S
O74         H100   0.965       .  S
O75         Zr85   2.375       .  S
O76         Zr85   2.382       .  S
O76         H101   0.965       .  S
C77        C1185   1.476       .  S
C78        C1515   1.479       .  S
C79        C1251   1.479   1_556  S
O80         H116   0.990       .  S
O81          C83   1.282       .  A
O82          C83   1.287       .  A
C83        C1461   1.478       .  S
O84         Zr85   2.439   1_554  S
O84         H113   0.990       .  S
Zr85         O88   2.437       .  S
Zr85         O89   2.439   1_556  S
Zr85         O90   2.417       .  S
O86          C91   1.284       .  A
O87         H104   0.990       .  S
O87         H119   0.990       .  S
O88         H105   0.990       .  S
O89         H109   0.990       .  S
O89         H118   0.990       .  S
O90          C91   1.281       .  A
C91        C1329   1.475       .  S
O92         H111   0.990       .  S
O92         H115   0.990       .  S
O93         H107   0.990       .  S
O93         H114   0.990       .  S
O94          C98   1.285       .  A
O95          C98   1.281       .  A
O96         H106   0.989       .  S
O97         H110   0.990       .  S
C98        C1383   1.482       .  S
C121        C122   1.403       .  A
C121        C126   1.408       .  A
C121       C1131   1.479       .  S
C122        C123   1.399       .  A
C122        H127   1.084       .  S
C123        C124   1.400       .  A
C123       C1097   1.479       .  S
C124        C125   1.403       .  A
C124        H128   1.084       .  S
C125        C126   1.405       .  A
C125       C1439   1.480       .  S
C126        H129   1.084       .  S
C130        C131   1.405       .  A
C130        C135   1.404       .  A
C130       C1075   1.472       .  S
C131        C132   1.404       .  A
C131        H136   1.084       .  S
C132        C133   1.402       .  A
C132       C1505   1.479       .  S
C133        C134   1.399       .  A
C133        H137   1.084       .  S
C134        C135   1.399       .  A
C134       C1065   1.476       .  S
C135        H138   1.084       .  S
C139        C140   1.413       .  A
C139        C144   1.407       .  A
C139       C1031   1.494       .  S
C140        C141   1.411       .  A
C140        H145   1.082       .  S
C141        C142   1.409       .  A
C141       C1285   1.497       .  S
C142        C143   1.401       .  A
C142        H146   1.083       .  S
C143        C144   1.399       .  A
C143       C1021   1.483   1_565  S
C144        H147   1.083   1_565  S
C148        C149   1.408       .  A
C148        C153   1.409       .  A
C148        C987   1.485       .  S
C149        C150   1.397       .  A
C149        H154   1.084       .  S
C150        C151   1.398       .  A
C150        C965   1.478       .  S
C151        C152   1.404       .  A
C151        H155   1.084       .  S
C152        C153   1.408       .  A
C152        C943   1.487       .  S
C153        H156   1.083       .  S
C157        C158   1.409       .  A
C157        C162   1.410       .  A
C157        C933   1.488       .  S
C158        C159   1.403       .  A
C158        H163   1.084       .  S
C159        C160   1.399       .  A
C159       C1141   1.479       .  S
C160        C161   1.404       .  A
C160        H164   1.084       .  S
C161        C162   1.405       .  A
C161        C911   1.487       .  S
C162        H165   1.083       .  S
C166        C167   1.405       .  A
C166        C171   1.405       .  A
C166        C889   1.488       .  S
C167        C168   1.401       .  A
C167        H172   1.083       .  S
C168        C169   1.402       .  A
C168        C855   1.478       .  S
C169        C170   1.406       .  A
C169        H173   1.084       .  S
C170        C171   1.405       .  A
C170        C845   1.483       .  S
C171        H174   1.083       .  S
Zr175       O176   2.441       .  S
Zr175       O177   2.438       .  S
Zr175       O178   2.463       .  S
Zr175       O181   2.437       .  S
Zr175       O183   2.381       .  S
Zr175       O184   2.389       .  S
Zr175       O185   2.401       .  S
Zr175       O186   2.405       .  S
O176        H232   0.990       .  S
O176        H240   0.991       .  S
O177        C197   1.285       .  A
O178        C199   1.289       .  A
O179       Zr189   2.416       .  S
O179        C198   1.283       .  A
O180       Zr188   2.408       .  S
O180        C199   1.281       .  A
O181        C198   1.286       .  A
O182       Zr190   2.414       .  S
O182        C197   1.281       .  A
O183       Zr188   2.392       .  S
O183       Zr190   2.378       .  S
O184       Zr189   2.393       .  S
O184       Zr190   2.375       .  S
O184        H219   0.965       .  S
O185       Zr188   2.395       .  S
O185       Zr205   2.384       .  S
O185        H222   0.965       .  S
O186       Zr189   2.390       .  S
O186       Zr205   2.386       .  S
Zr187       O212   2.441       .  S
Zr187       O206   2.450       .  S
Zr187       O214   2.438       .  S
Zr187       O202   2.448       .  S
Zr187       O193   2.408   1_565  S
Zr187       O194   2.407       .  S
Zr187       O195   2.379   1_565  S
Zr187       O196   2.385   1_565  S
Zr188       O207   2.437   1_545  S
Zr188       O200   2.434   1_545  S
Zr188       O201   2.408   1_545  S
Zr188       O194   2.398   1_545  S
Zr188       O195   2.390       .  S
Zr189       O191   2.435       .  S
Zr189       O213   2.437       .  S
Zr189       O215   2.431       .  S
Zr189       O193   2.389       .  S
Zr189       O196   2.386       .  S
Zr190       O216   2.438       .  S
Zr190       O217   2.435   1_545  S
Zr190       O192   2.438   1_545  S
Zr190       O193   2.396       .  S
Zr190       O194   2.394   1_545  S
O191        H228   0.990       .  S
O192        H223   0.990       .  S
O192        H237   0.990       .  S
O194        H220   0.965       .  S
O195       Zr205   2.379       .  S
O196       Zr205   2.380       .  S
O196        H221   0.964       .  S
C197        C877   1.483       .  S
C198       C1119   1.473       .  S
C199        C921   1.487       .  S
O200        H236   0.990       .  S
O201        C203   1.280       .  A
O202        C203   1.286       .  A
C203       C1087   1.479       .  S
O204       Zr205   2.439       .  S
O204        H233   0.990       .  S
Zr205       O208   2.437       .  S
Zr205       O209   2.440       .  S
Zr205       O210   2.402       .  S
O206        C211   1.287   1_565  A
O207        H224   0.990       .  S
O207        H239   0.990       .  S
O208        H225   0.990       .  S
O209        H229   0.990       .  S
O209        H238   0.990       .  S
O210        C211   1.280       .  A
C211        C999   1.481   1_545  S
O212        H231   0.990       .  S
O212        H235   0.990       .  S
O213        H227   0.990       .  S
O213        H234   0.990       .  S
O214        C218   1.285   1_565  A
O215        C218   1.285       .  A
O216        H226   0.990       .  S
O217        H230   0.990       .  S
C218       C1043   1.485       .  S
C241        C242   1.408       .  A
C241        C246   1.410       .  A
C241        C801   1.489   1_455  S
C242        C243   1.399       .  A
C242        H247   1.084       .  S
C243        C244   1.398       .  A
C243       C1207   1.482       .  S
C244        C245   1.407       .  A
C244        H248   1.083       .  S
C245        C246   1.411       .  A
C245        C811   1.492       .  S
C246        H249   1.083   1_455  S
C250        C251   1.411       .  A
C250        C255   1.411       .  A
C250        C779   1.484       .  S
C251        C252   1.405       .  A
C251        H256   1.083       .  S
C252        C253   1.399       .  A
C252       C1307   1.487       .  S
C253        C254   1.401       .  A
C253        H257   1.083       .  S
C254        C255   1.403       .  A
C254        C899   1.490       .  S
C255        H258   1.083       .  S
C259        C260   1.402       .  A
C259        C264   1.405       .  A
C259        C977   1.485       .  S
C260        C261   1.401       .  A
C260        H265   1.084       .  S
C261        C262   1.406       .  A
C261        C735   1.486       .  S
C262        C263   1.409       .  A
C262        H266   1.083       .  S
C263        C264   1.408       .  A
C263        C745   1.487       .  S
C264        H267   1.083       .  S
C268        C269   1.406       .  A
C268        C273   1.408       .  A
C268        C691   1.487       .  S
C269        C270   1.402       .  A
C269        H274   1.083       .  S
C270        C271   1.402       .  A
C270       C1351   1.483       .  S
C271        C272   1.407       .  A
C271        H275   1.083       .  S
C272        C273   1.407       .  A
C272        C701   1.492       .  S
C273        H276   1.082       .  S
C277        C278   1.406       .  A
C277        C282   1.407       .  A
C277        C657   1.489       .  S
C278        C279   1.404       .  A
C278        H283   1.083       .  S
C279        C280   1.404       .  A
C279       C1163   1.482       .  S
C280        C281   1.402       .  A
C280        H284   1.084       .  S
C281        C282   1.405       .  A
C281       C1009   1.481       .  S
C282        H285   1.083       .  S
C286        C287   1.405       .  A
C286        C291   1.403   1_565  A
C286        C867   1.484   1_565  S
C287        C288   1.406       .  A
C287        H292   1.083       .  S
C288        C289   1.401       .  A
C288        C613   1.482       .  S
C289        C290   1.400       .  A
C289        H293   1.084       .  S
C290        C291   1.401   1_565  A
C290        C635   1.470       .  S
C291        H294   1.084       .  S
Zr295       O296   2.440       .  S
Zr295       O297   2.435       .  S
Zr295       O298   2.448       .  S
Zr295       O301   2.431       .  S
Zr295       O303   2.381       .  S
Zr295       O304   2.385   1_655  S
Zr295       O305   2.405       .  S
Zr295       O306   2.407   1_545  S
O296        H352   0.990       .  S
O296        H360   0.990       .  S
O297        C317   1.284       .  A
O298        C319   1.286       .  A
O299       Zr309   2.412   1_545  S
O299        C318   1.282       .  A
O300       Zr308   2.421   1_556  S
O300        C319   1.283       .  A
O301        C318   1.285   1_655  A
O302       Zr310   2.426       .  S
O302        C317   1.283   1_455  A
O303       Zr308   2.390   1_556  S
O303       Zr310   2.380   1_655  S
O304       Zr309   2.388   1_545  S
O304       Zr310   2.371       .  S
O304        H339   0.967       .  S
O305       Zr308   2.395   1_556  S
O305       Zr325   2.392   1_545  S
O305        H342   0.966       .  S
O306       Zr309   2.389   1_655  S
O306       Zr325   2.393       .  S
Zr307       O332   2.441   1_665  S
Zr307       O326   2.449       .  S
Zr307       O334   2.444   1_655  S
Zr307       O322   2.446   1_565  S
Zr307       O313   2.404   1_664  S
Zr307       O314   2.409   1_565  S
Zr307       O315   2.382       .  S
Zr307       O316   2.386   1_554  S
Zr308       O327   2.437       .  S
Zr308       O320   2.435       .  S
Zr308       O321   2.418       .  S
Zr308       O314   2.394       .  S
Zr308       O315   2.389   1_545  S
Zr309       O311   2.435       .  S
Zr309       O333   2.439   1_565  S
Zr309       O335   2.412       .  S
Zr309       O313   2.390   1_565  S
Zr309       O316   2.387   1_455  S
Zr310       O336   2.437       .  S
Zr310       O337   2.435   1_556  S
Zr310       O312   2.437   1_556  S
Zr310       O313   2.392       .  S
Zr310       O314   2.399   1_456  S
O311        H348   0.990       .  S
O312        H343   0.990   1_454  S
O312        H357   0.990   1_455  S
O314        H340   0.966       .  S
O315       Zr325   2.373   1_554  S
O316       Zr325   2.378       .  S
O316        H341   0.966   1_655  S
C317        C823   1.477       .  S
C318        C647   1.474       .  S
C319        C669   1.488       .  S
O320        H356   0.990       .  S
O321        C323   1.283       .  A
O322        C323   1.287       .  A
C323        C757   1.480       .  S
O324       Zr325   2.434       .  S
O324        H353   0.990       .  S
Zr325       O328   2.434       .  S
Zr325       O329   2.439       .  S
Zr325       O330   2.413   1_556  S
O326        C331   1.286       .  A
O327        H344   0.990       .  S
O327        H359   0.990       .  S
O328        H345   0.990       .  S
O329        H349   0.990       .  S
O329        H358   0.989       .  S
O330        C331   1.281       .  A
C331        C713   1.479       .  S
O332        H351   0.990   1_545  S
O332        H355   0.991       .  S
O333        H347   0.990   1_545  S
O333        H354   0.990       .  S
O334        C338   1.286   1_554  A
O335        C338   1.282       .  A
O336        H346   0.990       .  S
O337        H350   0.990       .  S
C338        C767   1.484   1_556  S
C361        C362   1.398       .  A
C361        C366   1.401       .  A
C361        C591   1.476       .  S
C362        C363   1.403       .  A
C362        H367   1.083       .  S
C363        C364   1.406       .  A
C363       C1053   1.485       .  S
C364        C365   1.407       .  A
C364        H368   1.083       .  S
C365        C366   1.402       .  A
C365       C1405   1.482       .  S
C366        H369   1.084       .  S
C370        C371   1.400       .  A
C370        C375   1.404       .  A
C370        C569   1.477       .  S
C371        C372   1.401       .  A
C371        H376   1.084       .  S
C372        C373   1.404       .  A
C372       C1109   1.480       .  S
C373        C374   1.405       .  A
C373        H377   1.083       .  S
C374        C375   1.408       .  A
C374       C1483   1.487       .  S
C375        H378   1.083       .  S
C379        C380   1.409       .  A
C379        C384   1.409       .  A
C379        C547   1.483       .  S
C380        C381   1.399       .  A
C380        H385   1.083       .  S
C381        C382   1.399       .  A
C381        C955   1.478       .  S
C382        C383   1.402       .  A
C382        H386   1.084       .  S
C383        C384   1.402       .  A
C383        C625   1.484       .  S
C384        H387   1.083       .  S
C388        C389   1.410       .  A
C388        C393   1.407       .  A
C388        C537   1.484       .  S
C389        C390   1.404       .  A
C389        H394   1.083   1_455  S
C390        C391   1.402       .  A
C390        C723   1.485       .  S
C391        C392   1.399       .  A
C391        H395   1.084       .  S
C392        C393   1.399       .  A
C392        C833   1.474       .  S
C393        H396   1.084       .  S
C397        C398   1.408       .  A
C397        C402   1.406       .  A
C397        C503   1.484       .  S
C398        C399   1.404       .  A
C398        H403   1.083       .  S
C399        C400   1.404       .  A
C399        C789   1.487       .  S
C400        C401   1.404       .  A
C400        H404   1.083       .  S
C401        C402   1.403       .  A
C401       C1373   1.487       .  S
C402        H405   1.083       .  S
C406        C407   1.403       .  A
C406        C411   1.403       .  A
C406        C493   1.481       .  S
C407        C408   1.401       .  A
C407        H412   1.083       .  S
C408        C409   1.404       .  A
C408        C679   1.485       .  S
C409        C410   1.406       .  A
C409        H413   1.083       .  S
C410        C411   1.402       .  A
C410       C1229   1.480       .  S
C411        H414   1.083       .  S
Zr415       O416   2.440       .  S
Zr415       O417   2.423       .  S
Zr415       O418   2.431       .  S
Zr415       O421   2.431       .  S
Zr415       O423   2.382   1_455  S
Zr415       O424   2.384   1_455  S
Zr415       O425   2.403   1_455  S
Zr415       O426   2.395       .  S
O416        H472   0.990       .  S
O416        H480   0.990       .  S
O417        C437   1.282       .  A
O418        C439   1.283   1_455  A
O419       Zr429   2.407       .  S
O419        C438   1.281       .  A
O420       Zr428   2.419       .  S
O420        C439   1.283       .  A
O421        C438   1.284       .  A
O422       Zr430   2.410       .  S
O422        C437   1.280   1_655  A
O423       Zr428   2.391       .  S
O423       Zr430   2.378       .  S
O424       Zr429   2.380   1_655  S
O424       Zr430   2.371       .  S
O424        H459   0.965   1_655  S
O425       Zr428   2.395       .  S
O425       Zr445   2.391       .  S
O425        H462   0.966       .  S
O426       Zr429   2.385       .  S
O426       Zr445   2.382   1_455  S
Zr427       O452   2.441       .  S
Zr427       O446   2.448       .  S
Zr427       O454   2.442       .  S
Zr427       O442   2.436       .  S
Zr427       O433   2.407       .  S
Zr427       O434   2.407       .  S
Zr427       O435   2.384       .  S
Zr427       O436   2.382       .  S
Zr428       O447   2.435       .  S
Zr428       O440   2.435       .  S
Zr428       O441   2.428       .  S
Zr428       O434   2.391       .  S
Zr428       O435   2.389       .  S
Zr429       O431   2.435       .  S
Zr429       O453   2.439       .  S
Zr429       O455   2.403   1_455  S
Zr429       O433   2.389   1_455  S
Zr429       O436   2.387   1_455  S
Zr430       O456   2.435       .  S
Zr430       O457   2.435       .  S
Zr430       O432   2.437       .  S
Zr430       O433   2.394       .  S
Zr430       O434   2.387       .  S
O431        H468   0.990       .  S
O432        H463   0.990       .  S
O432        H477   0.990       .  S
O434        H460   0.965       .  S
O435       Zr445   2.382       .  S
O436       Zr445   2.379       .  S
O436        H461   0.965       .  S
C437        C481   1.463       .  S
C438        C603   1.468       .  S
C439        C525   1.480       .  S
O440        H476   0.990       .  S
O441        C443   1.284       .  A
O442        C443   1.285       .  A
C443        C581   1.480       .  S
O444       Zr445   2.438   1_455  S
O444        H473   0.990       .  S
Zr445       O448   2.436       .  S
Zr445       O449   2.440   1_655  S
Zr445       O450   2.401       .  S
O446        C451   1.287       .  A
O447        H464   0.990       .  S
O447        H479   0.990       .  S
O448        H465   0.990       .  S
O449        H469   0.990       .  S
O449        H478   0.990       .  S
O450        C451   1.279       .  A
C451        C515   1.480       .  S
O452        H471   0.990       .  S
O452        H475   0.991       .  S
O453        H467   0.990       .  S
O453        H474   0.990       .  S
O454        C458   1.285       .  A
O455        C458   1.280       .  A
O456        H466   0.990       .  S
O457        H470   0.990       .  S
C458        C559   1.478       .  S
C481        C482   1.397       .  A
C481        C486   1.397       .  A
C482        C483   1.390       .  A
C482        H495   1.084       .  S
C483        C484   1.414       .  A
C483        H496   1.077       .  S
C484        C490   1.424       .  A
C484        C485   1.423       .  A
C485        C487   1.399       .  A
C485        C486   1.402       .  A
C486        H497   1.085       .  S
C487        C488   1.389       .  A
C487        H498   1.084       .  S
C488        C489   1.399       .  A
C488        H499   1.084       .  S
C489        C490   1.421       .  A
C489        C494   1.403       .  A
C490        C491   1.412       .  A
C491        C492   1.390       .  A
C491        H500   1.077       .  S
C492        C493   1.400       .  A
C492        H501   1.083       .  S
C493        C494   1.402       .  A
C494        H502   1.084       .  S
C503        C504   1.401       .  A
C503        C508   1.401       .  A
C504        C505   1.397       .  A
C504        H517   1.083       .  S
C505        C506   1.414       .  A
C505        H518   1.077       .  S
C506        C512   1.430       .  A
C506        C507   1.423       .  A
C507        C509   1.399       .  A
C507        C508   1.403       .  A
C508        H519   1.084       .  S
C509        C510   1.388       .  A
C509        H520   1.084       .  S
C510        C511   1.399       .  A
C510        H521   1.084       .  S
C511        C512   1.420       .  A
C511        C516   1.400       .  A
C512        C513   1.417       .  A
C513        C514   1.400       .  A
C513        H522   1.077       .  S
C514        C515   1.399       .  A
C514        H523   1.083       .  S
C515        C516   1.403       .  A
C516        H524   1.085       .  S
C525        C526   1.402   1_655  A
C525        C530   1.401       .  A
C526        C527   1.397       .  A
C526        H539   1.083       .  S
C527        C528   1.415       .  A
C527        H540   1.077       .  S
C528        C534   1.428       .  A
C528        C529   1.422   1_455  A
C529        C531   1.398       .  A
C529        C530   1.400       .  A
C530        H541   1.085       .  S
C531        C532   1.387       .  A
C531        H542   1.084       .  S
C532        C533   1.398       .  A
C532        H543   1.084       .  S
C533        C534   1.422   1_655  A
C533        C538   1.401   1_655  A
C534        C535   1.414       .  A
C535        C536   1.396       .  A
C535        H544   1.077       .  S
C536        C537   1.402       .  A
C536        H545   1.083       .  S
C537        C538   1.401       .  A
C538        H546   1.084   1_455  S
C547        C548   1.402       .  A
C547        C552   1.401       .  A
C548        C549   1.393       .  A
C548        H561   1.083       .  S
C549        C550   1.414       .  A
C549        H562   1.077       .  S
C550        C556   1.427       .  A
C550        C551   1.422       .  A
C551        C553   1.399       .  A
C551        C552   1.402       .  A
C552        H563   1.084       .  S
C553        C554   1.389       .  A
C553        H564   1.084       .  S
C554        C555   1.399       .  A
C554        H565   1.084       .  S
C555        C556   1.423       .  A
C555        C560   1.403       .  A
C556        C557   1.413       .  A
C557        C558   1.392       .  A
C557        H566   1.077       .  S
C558        C559   1.402       .  A
C558        H567   1.083       .  S
C559        C560   1.401       .  A
C560        H568   1.084       .  S
C569        C570   1.398       .  A
C569        C574   1.399       .  A
C570        C571   1.398       .  A
C570        H583   1.084       .  S
C571        C572   1.416       .  A
C571        H584   1.077       .  S
C572        C578   1.430       .  A
C572        C573   1.423       .  A
C573        C575   1.398       .  A
C573        C574   1.403       .  A
C574        H585   1.085       .  S
C575        C576   1.388       .  A
C575        H586   1.084       .  S
C576        C577   1.399       .  A
C576        H587   1.084       .  S
C577        C578   1.422       .  A
C577        C582   1.403       .  A
C578        C579   1.415       .  A
C579        C580   1.398       .  A
C579        H588   1.077       .  S
C580        C581   1.402       .  A
C580        H589   1.083       .  S
C581        C582   1.401       .  A
C582        H590   1.085       .  S
C591        C592   1.398       .  A
C591        C596   1.400       .  A
C592        C593   1.393       .  A
C592        H605   1.083       .  S
C593        C594   1.415       .  A
C593        H606   1.077       .  S
C594        C600   1.425       .  A
C594        C595   1.421       .  A
C595        C597   1.399       .  A
C595        C596   1.401       .  A
C596        H607   1.085       .  S
C597        C598   1.389       .  A
C597        H608   1.084       .  S
C598        C599   1.399       .  A
C598        H609   1.084       .  S
C599        C600   1.424       .  A
C599        C604   1.403       .  A
C600        C601   1.413       .  A
C601        C602   1.390       .  A
C601        H610   1.077       .  S
C602        C603   1.398       .  A
C602        H611   1.084       .  S
C603        C604   1.399       .  A
C604        H612   1.085       .  S
C613        C614   1.399       .  A
C613        C618   1.405       .  A
C614        C615   1.389   1_455  A
C614        H627   1.083       .  S
C615        C616   1.413       .  A
C615        H628   1.077       .  S
C616        C622   1.424       .  A
C616        C617   1.420       .  A
C617        C619   1.402       .  A
C617        C618   1.406   1_655  A
C618        H629   1.084       .  S
C619        C620   1.394       .  A
C619        H630   1.084       .  S
C620        C621   1.401       .  A
C620        H631   1.084       .  S
C621        C622   1.422       .  A
C621        C626   1.409       .  A
C622        C623   1.410       .  A
C623        C624   1.387       .  A
C623        H632   1.077       .  S
C624        C625   1.401       .  A
C624        H633   1.083       .  S
C625        C626   1.404       .  A
C626        H634   1.084       .  S
C635        C636   1.396       .  A
C635        C640   1.399       .  A
C636        C637   1.393       .  A
C636        H649   1.084       .  S
C637        C638   1.416   1_565  A
C637        H650   1.077       .  S
C638        C644   1.425       .  A
C638        C639   1.422       .  A
C639        C641   1.399   1_455  A
C639        C640   1.401   1_545  A
C640        H651   1.085   1_455  S
C641        C642   1.389       .  A
C641        H652   1.084       .  S
C642        C643   1.399       .  A
C642        H653   1.084       .  S
C643        C644   1.423   1_655  A
C643        C648   1.404       .  A
C644        C645   1.412       .  A
C645        C646   1.391       .  A
C645        H654   1.077   1_545  S
C646        C647   1.400       .  A
C646        H655   1.084       .  S
C647        C648   1.400   1_455  A
C648        H656   1.085       .  S
C657        C658   1.402       .  A
C657        C662   1.403       .  A
C658        C659   1.395       .  A
C658        H671   1.083       .  S
C659        C660   1.415       .  A
C659        H672   1.077       .  S
C660        C666   1.430       .  A
C660        C661   1.421       .  A
C661        C663   1.400       .  A
C661        C662   1.406       .  A
C662        H673   1.084       .  S
C663        C664   1.392       .  A
C663        H674   1.084       .  S
C664        C665   1.400       .  A
C664        H675   1.084       .  S
C665        C666   1.423       .  A
C665        C670   1.409       .  A
C666        C667   1.412       .  A
C667        C668   1.393       .  A
C667        H676   1.077       .  S
C668        C669   1.404       .  A
C668        H677   1.083       .  S
C669        C670   1.404       .  A
C670        H678   1.084       .  S
C679        C680   1.402       .  A
C679        C684   1.401       .  A
C680        C681   1.395       .  A
C680        H693   1.083       .  S
C681        C682   1.414   1_455  A
C681        H694   1.077       .  S
C682        C688   1.429       .  A
C682        C683   1.423       .  A
C683        C685   1.399       .  A
C683        C684   1.404   1_655  A
C684        H695   1.084       .  S
C685        C686   1.389       .  A
C685        H696   1.084       .  S
C686        C687   1.399       .  A
C686        H697   1.084       .  S
C687        C688   1.421       .  A
C687        C692   1.403       .  A
C688        C689   1.415       .  A
C689        C690   1.397       .  A
C689        H698   1.077       .  S
C690        C691   1.401       .  A
C690        H699   1.083       .  S
C691        C692   1.403       .  A
C692        H700   1.084       .  S
C701        C702   1.404       .  A
C701        C706   1.402       .  A
C702        C703   1.400       .  A
C702        H715   1.083       .  S
C703        C704   1.415       .  A
C703        H716   1.078       .  S
C704        C710   1.432       .  A
C704        C705   1.423       .  A
C705        C707   1.398       .  A
C705        C706   1.403       .  A
C706        H717   1.084       .  S
C707        C708   1.387       .  A
C707        H718   1.084       .  S
C708        C709   1.398       .  A
C708        H719   1.084       .  S
C709        C710   1.421       .  A
C709        C714   1.401       .  A
C710        C711   1.418       .  A
C711        C712   1.402       .  A
C711        H720   1.078       .  S
C712        C713   1.400       .  A
C712        H721   1.083   1_655  S
C713        C714   1.401       .  A
C714        H722   1.085       .  S
C723        C724   1.401   1_455  A
C723        C728   1.402   1_455  A
C724        C725   1.393       .  A
C724        H737   1.083       .  S
C725        C726   1.414       .  A
C725        H738   1.077       .  S
C726        C732   1.429       .  A
C726        C727   1.422       .  A
C727        C729   1.400       .  A
C727        C728   1.408       .  A
C728        H739   1.084       .  S
C729        C730   1.392       .  A
C729        H740   1.084       .  S
C730        C731   1.400       .  A
C730        H741   1.084       .  S
C731        C732   1.423       .  A
C731        C736   1.408       .  A
C732        C733   1.413       .  A
C733        C734   1.393       .  A
C733        H742   1.077       .  S
C734        C735   1.401       .  A
C734        H743   1.083       .  S
C735        C736   1.402       .  A
C736        H744   1.084       .  S
C745        C746   1.401       .  A
C745        C750   1.402       .  A
C746        C747   1.398       .  A
C746        H759   1.083       .  S
C747        C748   1.415       .  A
C747        H760   1.078       .  S
C748        C754   1.431       .  A
C748        C749   1.423       .  A
C749        C751   1.399       .  A
C749        C750   1.406       .  A
C750        H761   1.085       .  S
C751        C752   1.390       .  A
C751        H762   1.084       .  S
C752        C753   1.400       .  A
C752        H763   1.084       .  S
C753        C754   1.422       .  A
C753        C758   1.405       .  A
C754        C755   1.416       .  A
C755        C756   1.399       .  A
C755        H764   1.078       .  S
C756        C757   1.400       .  A
C756        H765   1.083       .  S
C757        C758   1.403       .  A
C758        H766   1.085       .  S
C767        C768   1.401       .  A
C767        C772   1.404   1_554  A
C768        C769   1.398       .  A
C768        H781   1.083       .  S
C769        C770   1.416       .  A
C769        H782   1.077       .  S
C770        C776   1.430       .  A
C770        C771   1.421   1_554  A
C771        C773   1.399       .  A
C771        C772   1.402       .  A
C772        H783   1.084       .  S
C773        C774   1.389       .  A
C773        H784   1.084       .  S
C774        C775   1.399   1_556  A
C774        H785   1.084       .  S
C775        C776   1.423       .  A
C775        C780   1.405       .  A
C776        C777   1.414       .  A
C777        C778   1.396       .  A
C777        H786   1.077       .  S
C778        C779   1.400       .  A
C778        H787   1.083       .  S
C779        C780   1.401       .  A
C780        H788   1.084   1_554  S
C789        C790   1.400       .  A
C789        C794   1.404       .  A
C790        C791   1.391       .  A
C790        H803   1.083       .  S
C791        C792   1.413       .  A
C791        H804   1.076       .  S
C792        C798   1.429       .  A
C792        C793   1.422       .  A
C793        C795   1.401       .  A
C793        C794   1.410       .  A
C794        H805   1.084       .  S
C795        C796   1.394       .  A
C795        H806   1.084       .  S
C796        C797   1.401       .  A
C796        H807   1.084       .  S
C797        C798   1.423       .  A
C797        C802   1.412       .  A
C798        C799   1.412       .  A
C799        C800   1.390       .  A
C799        H808   1.076       .  S
C800        C801   1.401       .  A
C800        H809   1.083       .  S
C801        C802   1.405       .  A
C802        H810   1.084       .  S
C811        C812   1.403   1_455  A
C811        C816   1.404       .  A
C812        C813   1.401       .  A
C812        H825   1.083       .  S
C813        C814   1.416   1_655  A
C813        H826   1.078       .  S
C814        C820   1.431       .  A
C814        C815   1.421       .  A
C815        C817   1.399       .  A
C815        C816   1.401       .  A
C816        H827   1.084       .  S
C817        C818   1.388       .  A
C817        H828   1.084       .  S
C818        C819   1.398       .  A
C818        H829   1.084       .  S
C819        C820   1.423       .  A
C819        C824   1.404       .  A
C820        C821   1.415   1_455  A
C821        C822   1.399       .  A
C821        H830   1.078       .  S
C822        C823   1.400       .  A
C822        H831   1.083       .  S
C823        C824   1.400   1_655  A
C824        H832   1.085       .  S
C833        C834   1.397       .  A
C833        C838   1.399       .  A
C834        C835   1.393       .  A
C834        H847   1.084       .  S
C835        C836   1.415       .  A
C835        H848   1.077       .  S
C836        C842   1.428       .  A
C836        C837   1.423       .  A
C837        C839   1.400       .  A
C837        C838   1.405       .  A
C838        H849   1.085       .  S
C839        C840   1.391       .  A
C839        H850   1.084       .  S
C840        C841   1.400       .  A
C840        H851   1.084       .  S
C841        C842   1.422       .  A
C841        C846   1.405       .  A
C842        C843   1.414       .  A
C843        C844   1.393       .  A
C843        H852   1.077       .  S
C844        C845   1.401       .  A
C844        H853   1.083       .  S
C845        C846   1.402       .  A
C846        H854   1.084       .  S
C855        C856   1.398       .  A
C855        C860   1.400       .  A
C856        C857   1.398       .  A
C856        H869   1.083       .  S
C857        C858   1.417       .  A
C857        H870   1.077       .  S
C858        C864   1.429       .  A
C858        C859   1.422       .  A
C859        C861   1.399       .  A
C859        C860   1.401       .  A
C860        H871   1.085       .  S
C861        C862   1.388       .  A
C861        H872   1.084       .  S
C862        C863   1.399       .  A
C862        H873   1.084   1_545  S
C863        C864   1.423       .  A
C863        C868   1.403       .  A
C864        C865   1.414       .  A
C865        C866   1.396       .  A
C865        H874   1.077       .  S
C866        C867   1.401       .  A
C866        H875   1.083       .  S
C867        C868   1.401       .  A
C868        H876   1.084   1_545  S
C877        C878   1.402       .  A
C877        C882   1.403       .  A
C878        C879   1.399       .  A
C878        H891   1.083       .  S
C879        C880   1.416       .  A
C879        H892   1.077       .  S
C880        C886   1.430       .  A
C880        C881   1.421       .  A
C881        C883   1.399       .  A
C881        C882   1.400       .  A
C882        H893   1.084       .  S
C883        C884   1.387       .  A
C883        H894   1.084       .  S
C884        C885   1.398       .  A
C884        H895   1.084       .  S
C885        C886   1.422       .  A
C885        C890   1.401       .  A
C886        C887   1.414       .  A
C887        C888   1.397       .  A
C887        H896   1.077       .  S
C888        C889   1.403       .  A
C888        H897   1.083       .  S
C889        C890   1.402       .  A
C890        H898   1.084       .  S
C899        C900   1.403       .  A
C899        C904   1.402       .  A
C900        C901   1.405       .  A
C900        H913   1.083       .  S
C901        C902   1.419   1_565  A
C901        H914   1.078   1_565  S
C902        C908   1.433       .  A
C902        C903   1.421   1_545  A
C903        C905   1.397   1_565  A
C903        C904   1.395       .  A
C904        H915   1.084       .  S
C905        C906   1.383       .  A
C905        H916   1.084   1_545  S
C906        C907   1.397       .  A
C906        H917   1.084       .  S
C907        C908   1.423       .  A
C907        C912   1.398       .  A
C908        C909   1.416       .  A
C909        C910   1.403       .  A
C909        H918   1.078       .  S
C910        C911   1.403       .  A
C910        H919   1.083       .  S
C911        C912   1.400       .  A
C912        H920   1.085       .  S
C921        C922   1.402       .  A
C921        C926   1.405       .  A
C922        C923   1.402       .  A
C922        H935   1.083       .  S
C923        C924   1.417       .  A
C923        H936   1.077       .  S
C924        C930   1.433       .  A
C924        C925   1.421       .  A
C925        C927   1.399       .  A
C925        C926   1.402       .  A
C926        H937   1.085       .  S
C927        C928   1.388       .  A
C927        H938   1.084       .  S
C928        C929   1.398       .  A
C928        H939   1.084       .  S
C929        C930   1.423       .  A
C929        C934   1.404       .  A
C930        C931   1.416       .  A
C931        C932   1.400       .  A
C931        H940   1.077       .  S
C932        C933   1.402       .  A
C932        H941   1.083       .  S
C933        C934   1.401       .  A
C934        H942   1.084       .  S
C943        C944   1.402       .  A
C943        C948   1.404       .  A
C944        C945   1.387       .  A
C944        H957   1.083       .  S
C945        C946   1.411       .  A
C945        H958   1.076       .  S
C946        C952   1.426       .  A
C946        C947   1.422       .  A
C947        C949   1.401       .  A
C947        C948   1.411       .  A
C948        H959   1.084       .  S
C949        C950   1.395       .  A
C949        H960   1.084       .  S
C950        C951   1.401       .  A
C950        H961   1.084       .  S
C951        C952   1.422       .  A
C951        C956   1.410       .  A
C952        C953   1.413       .  A
C953        C954   1.388       .  A
C953        H962   1.076       .  S
C954        C955   1.398       .  A
C954        H963   1.084       .  S
C955        C956   1.402       .  A
C956        H964   1.084       .  S
C965        C966   1.399       .  A
C965        C970   1.398       .  A
C966        C967   1.402       .  A
C966        H979   1.083       .  S
C967        C968   1.418       .  A
C967        H980   1.078       .  S
C968        C974   1.431   1_565  A
C968        C969   1.422       .  A
C969        C971   1.397       .  A
C969        C970   1.397       .  A
C970        H981   1.085       .  S
C971        C972   1.385   1_565  A
C971        H982   1.084       .  S
C972        C973   1.398       .  A
C972        H983   1.084       .  S
C973        C974   1.422       .  A
C973        C978   1.399       .  A
C974        C975   1.417       .  A
C975        C976   1.401       .  A
C975        H984   1.078       .  S
C976        C977   1.401       .  A
C976        H985   1.083       .  S
C977        C978   1.401       .  A
C978        H986   1.085       .  S
C987        C988   1.401       .  A
C987        C992   1.403       .  A
C988        C989   1.391       .  A
C988       H1001   1.083       .  S
C989        C990   1.413       .  A
C989       H1002   1.076   1_565  S
C990        C996   1.428       .  A
C990        C991   1.422       .  A
C991        C993   1.400       .  A
C991        C992   1.408       .  A
C992       H1003   1.084       .  S
C993        C994   1.392       .  A
C993       H1004   1.084       .  S
C994        C995   1.400       .  A
C994       H1005   1.084       .  S
C995        C996   1.423       .  A
C995       C1000   1.409       .  A
C996        C997   1.413   1_565  A
C997        C998   1.391       .  A
C997       H1006   1.077       .  S
C998        C999   1.402   1_545  A
C998       H1007   1.084       .  S
C999       C1000   1.402       .  A
C1000      H1008   1.084       .  S
C1009      C1010   1.400       .  A
C1009      C1014   1.399       .  A
C1010      C1011   1.399       .  A
C1010      H1023   1.083       .  S
C1011      C1012   1.417       .  A
C1011      H1024   1.077       .  S
C1012      C1018   1.431       .  A
C1012      C1013   1.422       .  A
C1013      C1015   1.399       .  A
C1013      C1014   1.403       .  A
C1014      H1025   1.085       .  S
C1015      C1016   1.389       .  A
C1015      H1026   1.084       .  S
C1016      C1017   1.398       .  A
C1016      H1027   1.084   1_545  S
C1017      C1018   1.423       .  A
C1017      C1022   1.405   1_545  A
C1018      C1019   1.415       .  A
C1019      C1020   1.397       .  A
C1019      H1028   1.077       .  S
C1020      C1021   1.401       .  A
C1020      H1029   1.083       .  S
C1021      C1022   1.400   1_545  A
C1022      H1030   1.085       .  S
C1031      C1032   1.403       .  A
C1031      C1036   1.405   1_565  A
C1032      C1033   1.401       .  A
C1032      H1045   1.083       .  S
C1033      C1034   1.416       .  A
C1033      H1046   1.077       .  S
C1034      C1040   1.433       .  A
C1034      C1035   1.421   1_565  A
C1035      C1037   1.399       .  A
C1035      C1036   1.402       .  A
C1036      H1047   1.084       .  S
C1037      C1038   1.388       .  A
C1037      H1048   1.084       .  S
C1038      C1039   1.398       .  A
C1038      H1049   1.084       .  S
C1039      C1040   1.423   1_545  A
C1039      C1044   1.404       .  A
C1040      C1041   1.415       .  A
C1041      C1042   1.400       .  A
C1041      H1050   1.078       .  S
C1042      C1043   1.402   1_565  A
C1042      H1051   1.083       .  S
C1043      C1044   1.402       .  A
C1044      H1052   1.085       .  S
C1053      C1054   1.401       .  A
C1053      C1058   1.403       .  A
C1054      C1055   1.389       .  A
C1054      H1067   1.083       .  S
C1055      C1056   1.411       .  A
C1055      H1068   1.077       .  S
C1056      C1062   1.425       .  A
C1056      C1057   1.422       .  A
C1057      C1059   1.400       .  A
C1057      C1058   1.407       .  A
C1058      H1069   1.084       .  S
C1059      C1060   1.392       .  A
C1059      H1070   1.084       .  S
C1060      C1061   1.400       .  A
C1060      H1071   1.084       .  S
C1061      C1062   1.422       .  A
C1061      C1066   1.405       .  A
C1062      C1063   1.414       .  A
C1063      C1064   1.391       .  A
C1063      H1072   1.077       .  S
C1064      C1065   1.398       .  A
C1064      H1073   1.084       .  S
C1065      C1066   1.401       .  A
C1066      H1074   1.084       .  S
C1075      C1076   1.397       .  A
C1075      C1080   1.398       .  A
C1076      C1077   1.393       .  A
C1076      H1089   1.084       .  S
C1077      C1078   1.414       .  A
C1077      H1090   1.077       .  S
C1078      C1084   1.427       .  A
C1078      C1079   1.425       .  A
C1079      C1081   1.399       .  A
C1079      C1080   1.405       .  A
C1080      H1091   1.085       .  S
C1081      C1082   1.389       .  A
C1081      H1092   1.084       .  S
C1082      C1083   1.400       .  A
C1082      H1093   1.084       .  S
C1083      C1084   1.420       .  A
C1083      C1088   1.401       .  A
C1084      C1085   1.416       .  A
C1085      C1086   1.397       .  A
C1085      H1094   1.077       .  S
C1086      C1087   1.400       .  A
C1086      H1095   1.083       .  S
C1087      C1088   1.404       .  A
C1088      H1096   1.085       .  S
C1097      C1098   1.399       .  A
C1097      C1102   1.400       .  A
C1098      C1099   1.395       .  A
C1098      H1111   1.083       .  S
C1099      C1100   1.415       .  A
C1099      H1112   1.077       .  S
C1100      C1106   1.428       .  A
C1100      C1101   1.422       .  A
C1101      C1103   1.399       .  A
C1101      C1102   1.401       .  A
C1102      H1113   1.085       .  S
C1103      C1104   1.388       .  A
C1103      H1114   1.084       .  S
C1104      C1105   1.398       .  A
C1104      H1115   1.084       .  S
C1105      C1106   1.423       .  A
C1105      C1110   1.402       .  A
C1106      C1107   1.414       .  A
C1107      C1108   1.394       .  A
C1107      H1116   1.077       .  S
C1108      C1109   1.400       .  A
C1108      H1117   1.083       .  S
C1109      C1110   1.400       .  A
C1110      H1118   1.085       .  S
C1119      C1120   1.399       .  A
C1119      C1124   1.400       .  A
C1120      C1121   1.394       .  A
C1120      H1133   1.084       .  S
C1121      C1122   1.414       .  A
C1121      H1134   1.077       .  S
C1122      C1128   1.428       .  A
C1122      C1123   1.423       .  A
C1123      C1125   1.399       .  A
C1123      C1124   1.404       .  A
C1124      H1135   1.085       .  S
C1125      C1126   1.389       .  A
C1125      H1136   1.084       .  S
C1126      C1127   1.399       .  A
C1126      H1137   1.084       .  S
C1127      C1128   1.422       .  A
C1127      C1132   1.402       .  A
C1128      C1129   1.416       .  A
C1129      C1130   1.396       .  A
C1129      H1138   1.077       .  S
C1130      C1131   1.397       .  A
C1130      H1139   1.083       .  S
C1131      C1132   1.402       .  A
C1132      H1140   1.085       .  S
C1141      C1142   1.399       .  A
C1141      C1146   1.399       .  A
C1142      C1143   1.399       .  A
C1142      H1155   1.083       .  S
C1143      C1144   1.416       .  A
C1143      H1156   1.077       .  S
C1144      C1150   1.432       .  A
C1144      C1145   1.423       .  A
C1145      C1147   1.399       .  A
C1145      C1146   1.404       .  A
C1146      H1157   1.085       .  S
C1147      C1148   1.389       .  A
C1147      H1158   1.084       .  S
C1148      C1149   1.399       .  A
C1148      H1159   1.084       .  S
C1149      C1150   1.422       .  A
C1149      C1154   1.404       .  A
C1150      C1151   1.415       .  A
C1151      C1152   1.399       .  A
C1151      H1160   1.077       .  S
C1152      C1153   1.403       .  A
C1152      H1161   1.083       .  S
C1153      C1154   1.404       .  A
C1154      H1162   1.084       .  S
C1163      C1164   1.401       .  A
C1163      C1168   1.400       .  A
C1164      C1165   1.395       .  A
C1164      H1177   1.083       .  S
C1165      C1166   1.414       .  A
C1165      H1178   1.077   1_556  S
C1166      C1172   1.429       .  A
C1166      C1167   1.423       .  A
C1167      C1169   1.398       .  A
C1167      C1168   1.404       .  A
C1168      H1179   1.085       .  S
C1169      C1170   1.388       .  A
C1169      H1180   1.084       .  S
C1170      C1171   1.399       .  A
C1170      H1181   1.084       .  S
C1171      C1172   1.421       .  A
C1171      C1176   1.401   1_556  A
C1172      C1173   1.417   1_556  A
C1173      C1174   1.397       .  A
C1173      H1182   1.077       .  S
C1174      C1175   1.398       .  A
C1174      H1183   1.083       .  S
C1175      C1176   1.401       .  A
C1176      H1184   1.085   1_554  S
C1185      C1186   1.400       .  A
C1185      C1190   1.401   1_554  A
C1186      C1187   1.398       .  A
C1186      H1199   1.083       .  S
C1187      C1188   1.416       .  A
C1187      H1200   1.077       .  S
C1188      C1194   1.429       .  A
C1188      C1189   1.422       .  A
C1189      C1191   1.398   1_554  A
C1189      C1190   1.398   1_554  A
C1190      H1201   1.085       .  S
C1191      C1192   1.386       .  A
C1191      H1202   1.084       .  S
C1192      C1193   1.398   1_556  A
C1192      H1203   1.084       .  S
C1193      C1194   1.422       .  A
C1193      C1198   1.400       .  A
C1194      C1195   1.415       .  A
C1195      C1196   1.397       .  A
C1195      H1204   1.077       .  S
C1196      C1197   1.400       .  A
C1196      H1205   1.083       .  S
C1197      C1198   1.402       .  A
C1198      H1206   1.085       .  S
C1207      C1208   1.399       .  A
C1207      C1212   1.401       .  A
C1208      C1209   1.398       .  A
C1208      H1221   1.083       .  S
C1209      C1210   1.417       .  A
C1209      H1222   1.077       .  S
C1210      C1216   1.430       .  A
C1210      C1211   1.422       .  A
C1211      C1213   1.399       .  A
C1211      C1212   1.403       .  A
C1212      H1223   1.085       .  S
C1213      C1214   1.389       .  A
C1213      H1224   1.084       .  S
C1214      C1215   1.399       .  A
C1214      H1225   1.084   1_556  S
C1215      C1216   1.423       .  A
C1215      C1220   1.405   1_556  A
C1216      C1217   1.414       .  A
C1217      C1218   1.396       .  A
C1217      H1226   1.077       .  S
C1218      C1219   1.401       .  A
C1218      H1227   1.083       .  S
C1219      C1220   1.401   1_556  A
C1220      H1228   1.085       .  S
C1229      C1230   1.401       .  A
C1229      C1234   1.400       .  A
C1230      C1231   1.396       .  A
C1230      H1243   1.083       .  S
C1231      C1232   1.415       .  A
C1231      H1244   1.077       .  S
C1232      C1238   1.428       .  A
C1232      C1233   1.422       .  A
C1233      C1235   1.398       .  A
C1233      C1234   1.401       .  A
C1234      H1245   1.085       .  S
C1235      C1236   1.388       .  A
C1235      H1246   1.084       .  S
C1236      C1237   1.399       .  A
C1236      H1247   1.084       .  S
C1237      C1238   1.423       .  A
C1237      C1242   1.401       .  A
C1238      C1239   1.416       .  A
C1239      C1240   1.396       .  A
C1239      H1248   1.077       .  S
C1240      C1241   1.397       .  A
C1240      H1249   1.083       .  S
C1241      C1242   1.399       .  A
C1242      H1250   1.085       .  S
C1251      C1252   1.401       .  A
C1251      C1256   1.401   1_554  A
C1252      C1253   1.399       .  A
C1252      H1265   1.083       .  S
C1253      C1254   1.417       .  A
C1253      H1266   1.077       .  S
C1254      C1260   1.429       .  A
C1254      C1255   1.421   1_554  A
C1255      C1257   1.398       .  A
C1255      C1256   1.399       .  A
C1256      H1267   1.085       .  S
C1257      C1258   1.386       .  A
C1257      H1268   1.084       .  S
C1258      C1259   1.398       .  A
C1258      H1269   1.084       .  S
C1259      C1260   1.423   1_556  A
C1259      C1264   1.402       .  A
C1260      C1261   1.413       .  A
C1261      C1262   1.396       .  A
C1261      H1270   1.077       .  S
C1262      C1263   1.403       .  A
C1262      H1271   1.083       .  S
C1263      C1264   1.401   1_554  A
C1264      H1272   1.084       .  S
C1273      C1274   1.400       .  A
C1273      C1278   1.404       .  A
C1274      C1275   1.392       .  A
C1274      H1287   1.084       .  S
C1275      C1276   1.413       .  A
C1275      H1288   1.077       .  S
C1276      C1282   1.429       .  A
C1276      C1277   1.422       .  A
C1277      C1279   1.401       .  A
C1277      C1278   1.412       .  A
C1278      H1289   1.084       .  S
C1279      C1280   1.395       .  A
C1279      H1290   1.084       .  S
C1280      C1281   1.402       .  A
C1280      H1291   1.084       .  S
C1281      C1282   1.421       .  A
C1281      C1286   1.412       .  A
C1282      C1283   1.412       .  A
C1283      C1284   1.392       .  A
C1283      H1292   1.077       .  S
C1284      C1285   1.404       .  A
C1284      H1293   1.083       .  S
C1285      C1286   1.408       .  A
C1286      H1294   1.084       .  S
C1295      C1296   1.401       .  A
C1295      C1300   1.403       .  A
C1296      C1297   1.394       .  A
C1296      H1309   1.083       .  S
C1297      C1298   1.415       .  A
C1297      H1310   1.077       .  S
C1298      C1304   1.428       .  A
C1298      C1299   1.421       .  A
C1299      C1301   1.400       .  A
C1299      C1300   1.406       .  A
C1300      H1311   1.084       .  S
C1301      C1302   1.392       .  A
C1301      H1312   1.084       .  S
C1302      C1303   1.399       .  A
C1302      H1313   1.084       .  S
C1303      C1304   1.424       .  A
C1303      C1308   1.410       .  A
C1304      C1305   1.411       .  A
C1305      C1306   1.390   1_556  A
C1305      H1314   1.077       .  S
C1306      C1307   1.403       .  A
C1306      H1315   1.084       .  S
C1307      C1308   1.402   1_554  A
C1308      H1316   1.084   1_556  S
C1317      C1318   1.402       .  A
C1317      C1322   1.403       .  A
C1318      C1319   1.394       .  A
C1318      H1331   1.083       .  S
C1319      C1320   1.413       .  A
C1319      H1332   1.077       .  S
C1320      C1326   1.429       .  A
C1320      C1321   1.422       .  A
C1321      C1323   1.400       .  A
C1321      C1322   1.407       .  A
C1322      H1333   1.084       .  S
C1323      C1324   1.392       .  A
C1323      H1334   1.084       .  S
C1324      C1325   1.400       .  A
C1324      H1335   1.084       .  S
C1325      C1326   1.423       .  A
C1325      C1330   1.407       .  A
C1326      C1327   1.414       .  A
C1327      C1328   1.394       .  A
C1327      H1336   1.077       .  S
C1328      C1329   1.399       .  A
C1328      H1337   1.084       .  S
C1329      C1330   1.401       .  A
C1330      H1338   1.085       .  S
C1339      C1340   1.399       .  A
C1339      C1344   1.401       .  A
C1340      C1341   1.396       .  A
C1340      H1353   1.083       .  S
C1341      C1342   1.416       .  A
C1341      H1354   1.077       .  S
C1342      C1348   1.430       .  A
C1342      C1343   1.422       .  A
C1343      C1345   1.400   1_556  A
C1343      C1344   1.404       .  A
C1344      H1355   1.085       .  S
C1345      C1346   1.390       .  A
C1345      H1356   1.084       .  S
C1346      C1347   1.399       .  A
C1346      H1357   1.084       .  S
C1347      C1348   1.423   1_554  A
C1347      C1352   1.406       .  A
C1348      C1349   1.414       .  A
C1349      C1350   1.395       .  A
C1349      H1358   1.077       .  S
C1350      C1351   1.400   1_556  A
C1350      H1359   1.083       .  S
C1351      C1352   1.401       .  A
C1352      H1360   1.085       .  S
C1361      C1362   1.401       .  A
C1361      C1366   1.400       .  A
C1362      C1363   1.400       .  A
C1362      H1375   1.083       .  S
C1363      C1364   1.416       .  A
C1363      H1376   1.077       .  S
C1364      C1370   1.431       .  A
C1364      C1365   1.423       .  A
C1365      C1367   1.398       .  A
C1365      C1366   1.400       .  A
C1366      H1377   1.085       .  S
C1367      C1368   1.386       .  A
C1367      H1378   1.084       .  S
C1368      C1369   1.398       .  A
C1368      H1379   1.084       .  S
C1369      C1370   1.422       .  A
C1369      C1374   1.400       .  A
C1370      C1371   1.416       .  A
C1371      C1372   1.400       .  A
C1371      H1380   1.077       .  S
C1372      C1373   1.402       .  A
C1372      H1381   1.083       .  S
C1373      C1374   1.401       .  A
C1374      H1382   1.084       .  S
C1383      C1384   1.401       .  A
C1383      C1388   1.403       .  A
C1384      C1385   1.397       .  A
C1384      H1397   1.083       .  S
C1385      C1386   1.415       .  A
C1385      H1398   1.077       .  S
C1386      C1392   1.429       .  A
C1386      C1387   1.421       .  A
C1387      C1389   1.399       .  A
C1387      C1388   1.401       .  A
C1388      H1399   1.084       .  S
C1389      C1390   1.388       .  A
C1389      H1400   1.084       .  S
C1390      C1391   1.399       .  A
C1390      H1401   1.084       .  S
C1391      C1392   1.422       .  A
C1391      C1396   1.402       .  A
C1392      C1393   1.415       .  A
C1393      C1394   1.397       .  A
C1393      H1402   1.077       .  S
C1394      C1395   1.401       .  A
C1394      H1403   1.083       .  S
C1395      C1396   1.401       .  A
C1396      H1404   1.084       .  S
C1405      C1406   1.401       .  A
C1405      C1410   1.400       .  A
C1406      C1407   1.395       .  A
C1406      H1419   1.083       .  S
C1407      C1408   1.415       .  A
C1407      H1420   1.077       .  S
C1408      C1414   1.429       .  A
C1408      C1409   1.423       .  A
C1409      C1411   1.399       .  A
C1409      C1410   1.403       .  A
C1410      H1421   1.085       .  S
C1411      C1412   1.389       .  A
C1411      H1422   1.084       .  S
C1412      C1413   1.399       .  A
C1412      H1423   1.084       .  S
C1413      C1414   1.423       .  A
C1413      C1418   1.404       .  A
C1414      C1415   1.415       .  A
C1415      C1416   1.396       .  A
C1415      H1424   1.077       .  S
C1416      C1417   1.401       .  A
C1416      H1425   1.083       .  S
C1417      C1418   1.401       .  A
C1418      H1426   1.084       .  S
C1427      C1428   1.398       .  A
C1427      C1432   1.402       .  A
C1428      C1429   1.391       .  A
C1428      H1441   1.084       .  S
C1429      C1430   1.414       .  A
C1429      H1442   1.076       .  S
C1430      C1436   1.428       .  A
C1430      C1431   1.422       .  A
C1431      C1433   1.401       .  A
C1431      C1432   1.408       .  A
C1432      H1443   1.084       .  S
C1433      C1434   1.393       .  A
C1433      H1444   1.084       .  S
C1434      C1435   1.401       .  A
C1434      H1445   1.084       .  S
C1435      C1436   1.423       .  A
C1435      C1440   1.409       .  A
C1436      C1437   1.413       .  A
C1437      C1438   1.390       .  A
C1437      H1446   1.076       .  S
C1438      C1439   1.399       .  A
C1438      H1447   1.084       .  S
C1439      C1440   1.402       .  A
C1440      H1448   1.084       .  S
C1449      C1450   1.399       .  A
C1449      C1454   1.403       .  A
C1450      C1451   1.394       .  A
C1450      H1463   1.083       .  S
C1451      C1452   1.415       .  A
C1451      H1464   1.077       .  S
C1452      C1458   1.428       .  A
C1452      C1453   1.422       .  A
C1453      C1455   1.400       .  A
C1453      C1454   1.405       .  A
C1454      H1465   1.084       .  S
C1455      C1456   1.391       .  A
C1455      H1466   1.084       .  S
C1456      C1457   1.400       .  A
C1456      H1467   1.084       .  S
C1457      C1458   1.423       .  A
C1457      C1462   1.407       .  A
C1458      C1459   1.414       .  A
C1459      C1460   1.393       .  A
C1459      H1468   1.077       .  S
C1460      C1461   1.400       .  A
C1460      H1469   1.084       .  S
C1461      C1462   1.402       .  A
C1462      H1470   1.085       .  S
C1471      C1472   1.399       .  A
C1471      C1476   1.402       .  A
C1472      C1473   1.392       .  A
C1472      H1485   1.084       .  S
C1473      C1474   1.414       .  A
C1473      H1486   1.076       .  S
C1474      C1480   1.429       .  A
C1474      C1475   1.423       .  A
C1475      C1477   1.400       .  A
C1475      C1476   1.408       .  A
C1476      H1487   1.084       .  S
C1477      C1478   1.392       .  A
C1477      H1488   1.084       .  S
C1478      C1479   1.401       .  A
C1478      H1489   1.084       .  S
C1479      C1480   1.422       .  A
C1479      C1484   1.407       .  A
C1480      C1481   1.415       .  A
C1481      C1482   1.394       .  A
C1481      H1490   1.076       .  S
C1482      C1483   1.399       .  A
C1482      H1491   1.083       .  S
C1483      C1484   1.405       .  A
C1484      H1492   1.084       .  S
C1493      C1494   1.401       .  A
C1493      C1498   1.400       .  A
C1494      C1495   1.402       .  A
C1494      H1507   1.083       .  S
C1495      C1496   1.417       .  A
C1495      H1508   1.078       .  S
C1496      C1502   1.430       .  A
C1496      C1497   1.422       .  A
C1497      C1499   1.397       .  A
C1497      C1498   1.397       .  A
C1498      H1509   1.085       .  S
C1499      C1500   1.384       .  A
C1499      H1510   1.084       .  S
C1500      C1501   1.397       .  A
C1500      H1511   1.084       .  S
C1501      C1502   1.422       .  A
C1501      C1506   1.397       .  A
C1502      C1503   1.417       .  A
C1503      C1504   1.401       .  A
C1503      H1512   1.078       .  S
C1504      C1505   1.399       .  A
C1504      H1513   1.083       .  S
C1505      C1506   1.399       .  A
C1506      H1514   1.085       .  S
C1515      C1516   1.400       .  A
C1515      C1520   1.401       .  A
C1516      C1517   1.397       .  A
C1516      H1529   1.084       .  S
C1517      C1518   1.415       .  A
C1517      H1530   1.077       .  S
C1518      C1524   1.431       .  A
C1518      C1519   1.423       .  A
C1519      C1521   1.399       .  A
C1519      C1520   1.406       .  A
C1520      H1531   1.085       .  S
C1521      C1522   1.389       .  A
C1521      H1532   1.084       .  S
C1522      C1523   1.399       .  A
C1522      H1533   1.084       .  S
C1523      C1524   1.422       .  A
C1523      C1528   1.404       .  A
C1524      C1525   1.416       .  A
C1525      C1526   1.398       .  A
C1525      H1534   1.077       .  S
C1526      C1527   1.401       .  A
C1526      H1535   1.083       .  S
C1527      C1528   1.401       .  A
C1528      H1536   1.084       .  S
