geometry optimzed in LAMMPS
_audit_creation_date              2020-11-30 
_audit_creation_method            'lammps2cif' 
_symmetry_space_group_name_H-M    'P1' 
_symmetry_Int_Tables_number       1 
_symmetry_cell_setting            triclinic 
loop_ 
_symmetry_equiv_pos_as_xyz 
  x,y,z 
_cell_length_a                    50.4752716 
_cell_length_b                    50.428011484288106 
_cell_length_c                    50.48945209444139 
_cell_angle_alpha                 90.00908082609652 
_cell_angle_beta                  90.00024124860266 
_cell_angle_gamma                 89.75397240665285 
loop_ 
_atom_site_label 
_atom_site_type_symbol 
_atom_site_fract_x 
_atom_site_fract_y 
_atom_site_fract_z 
_atom_site_charge 
O1          O  0.26900432  0.31923784  0.48032267    -0.86800
O2          O  0.30657810  0.33567019  0.44664336    -0.83800
C3          C  0.30618914  0.35918755  0.45431224     0.96700
O4          O  0.31784472  0.36500295  0.47613554    -0.83900
O5          O  0.31771664  0.36505355  0.02388720    -0.86500
C6          C  0.30615993  0.35928166  0.04570530     1.01200
O7          O  0.30718056  0.33591904  0.05372265    -0.79300
O8          O  0.26961514  0.31979106  0.02001122    -0.79500
C9          C  0.25751284  0.30897532  0.49959376     1.01100
O10         O  0.29472721  0.26945693  0.48428276    -0.86800
O11         O  0.33525673  0.28877946  0.45686310    -0.83900
C12         C  0.35671150  0.30097457  0.45489152     0.96700
O13         O  0.36043396  0.32273825  0.46803800    -0.83900
O14         O  0.36055685  0.32263608  0.03267114    -0.86500
C15         C  0.35677627  0.30076520  0.04576722     1.01200
O16         O  0.33530010  0.28871719  0.04376225    -0.79300
O17         O  0.29518985  0.26952040  0.01665401    -0.79500
C18         C  0.30853452  0.25770079  0.50130486     1.01100
Cr19       Cr  0.30245658  0.30438494  0.46973793     1.93700
Cr20       Cr  0.34053208  0.34039383  0.00025018     1.93200
Cr21       Cr  0.30279917  0.30457235  0.03084134     1.39100
O22         O  0.31634430  0.31622170  0.00027049    -1.24500
O23         O  0.27010899  0.19328839  0.01623225    -0.86800
O24         O  0.29002847  0.15322499  0.04380171    -0.83800
C25         C  0.30168003  0.13136467  0.04537414     0.96700
O26         O  0.32321008  0.12708048  0.03204596    -0.83900
O27         O  0.31767899  0.12233900  0.47663333    -0.86500
C28         C  0.30650579  0.12848118  0.45473406     1.01200
O29         O  0.30817445  0.15174142  0.44660363    -0.79300
O30         O  0.27026019  0.16892126  0.48000497    -0.79500
C31         C  0.25844329  0.17994194  0.49879845     1.01100
O32         O  0.32008248  0.21903100  0.01931988    -0.86800
O33         O  0.33768174  0.18130657  0.05286499    -0.83900
C34         C  0.36081380  0.18142866  0.04398310     0.96700
O35         O  0.36563164  0.16911608  0.02246067    -0.83900
O36         O  0.36128884  0.16339896  0.46815155    -0.86500
C37         C  0.35845278  0.18566643  0.45574346     1.01200
O38         O  0.33691966  0.19806211  0.45647873    -0.79300
O39         O  0.29615687  0.21836254  0.48340633    -0.79500
C40         C  0.30943700  0.23017484  0.50072500     1.01100
Cr41       Cr  0.30553321  0.18565930  0.03042416     1.93700
Cr42       Cr  0.34065227  0.14682798  0.99979035     1.93200
Cr43       Cr  0.30385360  0.18320407  0.46923503     1.39100
O44         O  0.31692050  0.17169519  0.99985587    -1.24500
O45         O  0.16928763  0.26960281  0.47974904    -0.86800
O46         O  0.15195584  0.30759995  0.44635316    -0.83800
C47         C  0.12862873  0.30668221  0.45439214     0.96700
O48         O  0.12274006  0.31825609  0.47616730    -0.83900
O49         O  0.12698655  0.32373653  0.03162665    -0.86500
C50         C  0.13096799  0.30204197  0.04481769     1.01200
O51         O  0.15276072  0.29026514  0.04340759    -0.79300
O52         O  0.19311897  0.27046755  0.01652993    -0.79500
C53         C  0.17965497  0.25815475  0.49911060     1.01100
O54         O  0.21845071  0.29567970  0.48313947    -0.86800
O55         O  0.19857911  0.33627569  0.45585747    -0.83900
C56         C  0.18674952  0.35813600  0.45542084     0.96700
O57         O  0.16471020  0.36137277  0.46815192    -0.83900
O58         O  0.16982915  0.36578196  0.02197339    -0.86500
C59         C  0.18196730  0.36087748  0.04362345     1.01200
O60         O  0.18068477  0.33793845  0.05282395    -0.79300
O61         O  0.21823901  0.32090126  0.01918570    -0.79500
C62         C  0.23027969  0.30921254  0.50018409     1.01100
Cr63       Cr  0.18345027  0.30333832  0.46899235     1.93700
Cr64       Cr  0.14688586  0.34103585  0.99936073     1.93200
Cr65       Cr  0.18516882  0.30590968  0.03027987     1.39100
O66         O  0.17141200  0.31696931  0.99949795    -1.24500
O67         O  0.21883454  0.16851890  0.48044132    -0.86800
O68         O  0.18136920  0.15080158  0.44688114    -0.83800
C69         C  0.18252774  0.12789433  0.45613886     0.96700
O70         O  0.17046434  0.12302242  0.47776633    -0.83900
O71         O  0.16392715  0.12766882  0.03138074    -0.86500
C72         C  0.18560457  0.13082569  0.04448097     1.01200
O73         O  0.19748403  0.15256290  0.04421411    -0.79300
O74         O  0.21853243  0.19262581  0.01677407    -0.79500
C75         C  0.23068733  0.17982603  0.49895676     1.01100
O76         O  0.19267136  0.21847697  0.48265571    -0.86800
O77         O  0.15266736  0.19808310  0.45530773    -0.83900
C78         C  0.13080537  0.18650375  0.45517805     0.96700
O79         O  0.12740310  0.16487043  0.46838443    -0.83900
O80         O  0.12264300  0.17087425  0.02219965    -0.86500
C81         C  0.12756430  0.18277012  0.04394800     1.01200
O82         O  0.15064805  0.18220052  0.05287562    -0.79300
O83         O  0.16934886  0.21965781  0.01951413    -0.79500
C84         C  0.17955141  0.23068003  0.49993615     1.01100
Cr85       Cr  0.18537198  0.18296920  0.46904097     1.93700
Cr86       Cr  0.14728449  0.14793224  0.99965706     1.93200
Cr87       Cr  0.18294926  0.18569329  0.03065638     1.39100
O88         O  0.17147896  0.17212427  0.99985952    -1.24500
O89         O  0.21915972  0.47393145  0.32510707    -0.86800
O90         O  0.18137649  0.44096611  0.34219771    -0.83800
C91         C  0.18320187  0.44912425  0.36539630     0.96700
O92         O  0.17185836  0.47117108  0.37139029    -0.83900
O93         O  0.16614542  0.02757168  0.36722439    -0.86500
C94         C  0.18797305  0.04036741  0.36330543     1.01200
O95         O  0.19995145  0.03832439  0.34166984    -0.79300
O96         O  0.21902614  0.01040080  0.30114102    -0.79500
C97         C  0.23101803  0.49268676  0.31427678     1.01100
O98         O  0.19308180  0.47748565  0.27554513    -0.86800
O99         O  0.15221069  0.45099078  0.29611329    -0.83900
C100        C  0.13067584  0.45064653  0.30843229     0.96700
O101        O  0.12775230  0.46396873  0.33016199    -0.83900
O102        O  0.12369887  0.01961098  0.32488267    -0.86500
C103        C  0.12958776  0.04099282  0.31256504     1.01200
O104        O  0.15300938  0.04875678  0.31311674    -0.79300
O105        O  0.16896918  0.01466352  0.27580541    -0.79500
C106        C  0.17998332  0.49501542  0.26368611     1.01100
Cr107      Cr  0.18543495  0.46364518  0.31080075     1.93700
Cr108      Cr  0.14868009  0.49537417  0.34722493     1.93200
Cr109      Cr  0.18416043  0.02537164  0.30900686     1.39100
O110        O  0.17245463  0.49466932  0.32255831    -1.24500
O111        O  0.19418283  0.47812984  0.22437124    -0.86800
O112        O  0.15410850  0.45032716  0.20485993    -0.83800
C113        C  0.13269637  0.44809527  0.19256873     0.96700
O114        O  0.12916296  0.46044958  0.17032252    -0.83900
O115        O  0.12345766  0.01611428  0.17634967    -0.86500
C116        C  0.12825167  0.03801221  0.18807162     1.01200
O117        O  0.15104170  0.04743677  0.18644560    -0.79300
O118        O  0.16882235  0.01455548  0.22435023    -0.79500
C119        C  0.18019965  0.49506266  0.23612425     1.01100
O120        O  0.21979691  0.47477072  0.17450559    -0.86800
O121        O  0.18295431  0.44031447  0.15803291    -0.83900
C122        C  0.18369723  0.44811172  0.13457909     0.96700
O123        O  0.17190179  0.46980975  0.12857842    -0.83900
O124        O  0.16476838  0.02633080  0.13310551    -0.86500
C125        C  0.18640443  0.03964430  0.13676872     1.01200
O126        O  0.19853822  0.03811294  0.15827444    -0.79300
O127        O  0.21914194  0.01166029  0.19856194    -0.79500
C128        C  0.23141360  0.49361897  0.18547666     1.01100
Cr129      Cr  0.18671868  0.46346419  0.18936617     1.93700
Cr130      Cr  0.14859820  0.49298756  0.15298183     1.93200
Cr131      Cr  0.18339403  0.02531572  0.19093025     1.39100
O132        O  0.17267129  0.49364873  0.17732859    -1.24500
O133        O  0.29609871  0.47791196  0.27568364    -0.86800
O134        O  0.33658527  0.45071477  0.29549842    -0.83800
C135        C  0.35837198  0.44921652  0.30719828     0.96700
O136        O  0.36237909  0.46256313  0.32873380    -0.83900
O137        O  0.36610497  0.01802008  0.32276917    -0.86500
C138        C  0.35979453  0.03996446  0.31160892     1.01200
O139        O  0.33643052  0.04789524  0.31326241    -0.79300
O140        O  0.31953954  0.01438124  0.27567665    -0.79500
C141        C  0.30918029  0.49538158  0.26369739     1.01100
O142        O  0.27072713  0.47480243  0.32618949    -0.86800
O143        O  0.30863533  0.44157926  0.34332730    -0.83900
C144        C  0.30772917  0.45078040  0.36630621     0.96700
O145        O  0.31997370  0.47234065  0.37110874    -0.83900
O146        O  0.32513796  0.02600991  0.36658626    -0.86500
C147        C  0.30294519  0.03861500  0.36394471     1.01200
O148        O  0.29036840  0.03780333  0.34256313    -0.79300
O149        O  0.27011018  0.01065063  0.30177227    -0.79500
C150        C  0.25860425  0.49311634  0.31480786     1.01100
Cr151      Cr  0.30402817  0.46390676  0.31118609     1.93700
Cr152      Cr  0.34244677  0.49492952  0.34601368     1.93200
Cr153      Cr  0.30517355  0.02500091  0.30931347     1.39100
O154        O  0.31761693  0.49465460  0.32238447    -1.24500
O155        O  0.32093227  0.01362101  0.22435243    -0.86800
O156        O  0.33827768  0.04755528  0.18700669    -0.83800
C157        C  0.36133595  0.03854889  0.18788759     0.96700
O158        O  0.36640379  0.01691130  0.17574164    -0.83900
O159        O  0.36229818  0.46273605  0.16956440    -0.86500
C160        C  0.35908818  0.44971741  0.19131727     1.01200
O161        O  0.33726157  0.44987720  0.20309308    -0.79300
O162        O  0.29695504  0.47744616  0.22388128    -0.79500
C163        C  0.30981979  0.49500651  0.23593603     1.01100
O164        O  0.27093200  0.01120633  0.19874017    -0.86800
O165        O  0.29107038  0.03885490  0.15831968    -0.83900
C166        C  0.30263862  0.03908579  0.13636950     0.96700
O167        O  0.32436207  0.02594964  0.13288381    -0.83900
O168        O  0.31895008  0.47187144  0.12816151    -0.86500
C169        C  0.30694206  0.45021400  0.13314910     1.01200
O170        O  0.30810614  0.44108646  0.15611501    -0.79300
O171        O  0.27093947  0.47507524  0.17402552    -0.79500
C172        C  0.25911778  0.49372784  0.18529250     1.01100
Cr173      Cr  0.30633358  0.02510222  0.19105205     1.93700
Cr174      Cr  0.34204579  0.49442437  0.15261574     1.93200
Cr175      Cr  0.30436042  0.46355327  0.18827232     1.39100
O176        O  0.31794175  0.49433470  0.17693619    -1.24500
O177        O  0.47809850  0.19302728  0.27587374    -0.86800
O178        O  0.45088306  0.15238670  0.29608230    -0.83800
C179        C  0.44998544  0.13096567  0.30858233     0.96700
O180        O  0.46266832  0.12814204  0.33068605    -0.83900
O181        O  0.01709983  0.12360737  0.32488939    -0.86500
C182        C  0.03867261  0.12833833  0.31263313     1.01200
O183        O  0.04775099  0.15132577  0.31346761    -0.79300
O184        O  0.01381305  0.16812299  0.27617999    -0.79500
C185        C  0.49547997  0.17958077  0.26419809     1.01100
O186        O  0.47412667  0.21938586  0.32489666    -0.86800
O187        O  0.44095947  0.18151740  0.34226664    -0.83900
C188        C  0.44886022  0.18282558  0.36562127     0.96700
O189        O  0.47082517  0.17168915  0.37178361    -0.83900
O190        O  0.02673417  0.16615619  0.36727458    -0.86500
C191        C  0.04003814  0.18770662  0.36309030     1.01200
O192        O  0.03850611  0.19929006  0.34127761    -0.79300
O193        O  0.01096875  0.21875579  0.30138635    -0.79500
C194        C  0.49358176  0.23070367  0.31472954     1.01100
Cr195      Cr  0.46369165  0.18556101  0.31087288     1.93700
Cr196      Cr  0.49438739  0.14850975  0.34774748     1.93200
Cr197      Cr  0.02507632  0.18336960  0.30908720     1.39100
O198        O  0.49435629  0.17225647  0.32306414    -1.24500
O199        O  0.47529950  0.21955552  0.17519631    -0.86800
O200        O  0.44156584  0.18171937  0.15878462    -0.83800
C201        C  0.44925238  0.18193621  0.13531079     0.96700
O202        O  0.47101486  0.17012710  0.12949185    -0.83900
O203        O  0.02690137  0.16513493  0.13376832    -0.86500
C204        C  0.03973991  0.18709473  0.13733963     1.01200
O205        O  0.03823546  0.19911205  0.15895237    -0.79300
O206        O  0.01146818  0.21891588  0.19923110    -0.79500
C207        C  0.49463350  0.23097527  0.18548824     1.01100
O208        O  0.47908672  0.19397892  0.22488835    -0.86800
O209        O  0.45157535  0.15335437  0.20566599    -0.83900
C210        C  0.44961182  0.13176403  0.19357056     0.96700
O211        O  0.46278735  0.12782299  0.17184912    -0.83900
O212        O  0.01878452  0.12317873  0.17714705    -0.86500
C213        C  0.04059029  0.12899996  0.18875831     1.01200
O214        O  0.04854137  0.15232898  0.18755078    -0.79300
O215        O  0.01466738  0.16889379  0.22489416    -0.79500
C216        C  0.49607322  0.18015994  0.23671020     1.01100
Cr217      Cr  0.46456895  0.18607703  0.19003075     1.93700
Cr218      Cr  0.49496237  0.14766467  0.15418766     1.93200
Cr219      Cr  0.02550571  0.18372061  0.19164258     1.39100
O220        O  0.49502810  0.17221419  0.17816823    -1.24500
O221        O  0.47532415  0.32011741  0.22471731    -0.86800
O222        O  0.44082883  0.33638065  0.18764158    -0.83800
C223        C  0.44871075  0.35972543  0.18839036     0.96700
O224        O  0.47015502  0.36565952  0.17644757    -0.83900
O225        O  0.02506092  0.36177494  0.17080414    -0.86500
C226        C  0.03884364  0.35822473  0.19209944     1.01200
O227        O  0.03897206  0.33624890  0.20364975    -0.79300
O228        O  0.01164713  0.29595548  0.22450693    -0.79500
C229        C  0.49412788  0.30912027  0.23651417     1.01100
O230        O  0.47846034  0.27023278  0.19924434    -0.86800
O231        O  0.45024370  0.28967404  0.15906496    -0.83900
C232        C  0.44932180  0.30150794  0.13727950     0.96700
O233        O  0.46205913  0.32343178  0.13377410    -0.83900
O234        O  0.01675458  0.31884422  0.12891742    -0.86500
C235        C  0.03854645  0.30682958  0.13366619     1.01200
O236        O  0.04757503  0.30718017  0.15668267    -0.79300
O237        O  0.01441242  0.26953325  0.17487857    -0.79500
C238        C  0.49534398  0.25832678  0.18547137     1.01100
Cr239      Cr  0.46393868  0.30517075  0.19162769     1.93700
Cr240      Cr  0.49356378  0.34134185  0.15358861     1.93200
Cr241      Cr  0.02538940  0.30328991  0.18889802     1.39100
O242        O  0.49433124  0.31697375  0.17768564    -1.24500
O243        O  0.01098933  0.29526608  0.27617124    -0.86800
O244        O  0.03852419  0.33531224  0.29619081    -0.83800
C245        C  0.04042314  0.35691242  0.30819094     0.96700
O246        O  0.02761251  0.36077853  0.33006206    -0.83900
O247        O  0.47304949  0.36615187  0.32350141    -0.86500
C248        C  0.45116998  0.36133138  0.31194878     1.01200
O249        O  0.44176634  0.33853838  0.31352372    -0.79300
O250        O  0.47530715  0.32033635  0.27597977    -0.79500
C251        C  0.49389175  0.30888771  0.26421505     1.01100
O252        O  0.01374368  0.26932210  0.32581668    -0.86800
O253        O  0.04731732  0.30694377  0.34381506    -0.83900
C254        C  0.03825125  0.30654079  0.36687014     0.96700
O255        O  0.01666091  0.31863817  0.37174660    -0.83900
O256        O  0.46277922  0.32489276  0.36700932    -0.86500
C257        C  0.44976724  0.30304565  0.36383571     1.01200
O258        O  0.45008835  0.29121224  0.34206920    -0.79300
O259        O  0.47719895  0.27046609  0.30201373    -0.79500
C260        C  0.49440333  0.25813885  0.31513499     1.01100
Cr261      Cr  0.02507030  0.30277982  0.31156266     1.93700
Cr262      Cr  0.49494649  0.34157059  0.34691298     1.93200
Cr263      Cr  0.46373492  0.30611530  0.30936891     1.39100
O264        O  0.49458895  0.31695519  0.32303902    -1.24500
O265        O  0.01966285  0.26149958  0.05125454    -0.86800
O266        O  0.03993541  0.28888870  0.09111526    -0.83800
C267        C  0.05202739  0.29047917  0.11266576     0.96700
O268        O  0.07395898  0.27748676  0.11624268    -0.83900
O269        O  0.06773699  0.22254261  0.12130754    -0.86500
C270        C  0.05606534  0.20067619  0.11643336     1.01200
O271        O  0.05698365  0.19165323  0.09339625    -0.79300
O272        O  0.01967758  0.22596462  0.07636266    -0.79500
C273        C  0.00780491  0.24451156  0.06502110     1.01100
O274        O  0.06972077  0.26363824  0.02543835    -0.86800
O275        O  0.08726554  0.29770559  0.06251648    -0.83900
C276        C  0.11029049  0.28856917  0.06142936     0.96700
O277        O  0.11532771  0.26675482  0.07322904    -0.83900
O278        O  0.11037839  0.21190760  0.07953280    -0.86500
C279        C  0.10665155  0.19908930  0.05759726     1.01200
O280        O  0.08497943  0.20076014  0.04571100    -0.79300
O281        O  0.04472792  0.22814251  0.02587721    -0.79500
C282        C  0.05852582  0.24493663  0.01379341     1.01100
Cr283      Cr  0.05515956  0.27535065  0.05857325     1.93700
Cr284      Cr  0.09081011  0.24468239  0.09655528     1.93200
Cr285      Cr  0.05258103  0.21422130  0.06134303     1.39100
O286        O  0.06652839  0.24476017  0.07248362    -1.24500
O287        O  0.06950801  0.01917026  0.27074221    -0.86800
O288        O  0.08621257  0.05715633  0.30406203    -0.83800
C289        C  0.10968569  0.05649543  0.29633082     0.96700
O290        O  0.11558935  0.06799079  0.27446805    -0.83900
O291        O  0.11124283  0.07307012  0.21824216    -0.86500
C292        C  0.10764410  0.05116153  0.20525415     1.01200
O293        O  0.08627470  0.03888562  0.20729682    -0.79300
O294        O  0.04589581  0.01948393  0.23418865    -0.74700
C295        C  0.05937271  0.00764719  0.25138435     1.01100
O296        O  0.02002360  0.04529951  0.26645480    -0.86800
O297        O  0.03948042  0.08601295  0.29363608    -0.83900
C298        C  0.05176999  0.10743530  0.29563341     0.96700
O299        O  0.07365195  0.11093339  0.28265477    -0.83900
O300        O  0.06809174  0.11511357  0.22662237    -0.86500
C301        C  0.05655027  0.10920183  0.20479446     1.01200
O302        O  0.05778325  0.08580645  0.19688516    -0.79300
O303        O  0.02029904  0.06970650  0.23053606    -0.79500
C304        C  0.00835562  0.05898260  0.24926495     1.01100
Cr305      Cr  0.05491590  0.05295666  0.28104376     1.93700
Cr306      Cr  0.09107488  0.09065388  0.25047681     1.93200
Cr307      Cr  0.05356840  0.05454194  0.21995185     1.39100
O308        O  0.06699093  0.06631212  0.25052014    -1.24500
O309        O  0.26381405  0.07032451  0.02585840    -0.86800
O310        O  0.29727758  0.08787251  0.06352694    -0.83800
C311        C  0.28821364  0.11090618  0.06228544     0.96700
O312        O  0.26648038  0.11608692  0.07414655    -0.83900
O313        O  0.21217942  0.11169106  0.07993918    -0.86500
C314        C  0.19926389  0.10843083  0.05814566     1.01200
O315        O  0.19980891  0.08665633  0.04621222    -0.79300
O316        O  0.22768618  0.04621044  0.02583731    -0.79500
C317        C  0.24526891  0.05915550  0.01393175     1.01100
O318        O  0.26102213  0.02048297  0.05169961    -0.86800
O319        O  0.28827304  0.04082488  0.09232216    -0.83900
C320        C  0.28866188  0.05273320  0.11409125     0.96700
O321        O  0.27553604  0.07451612  0.11733764    -0.83900
O322        O  0.22118668  0.06858936  0.12131203    -0.86500
C323        C  0.19959897  0.05656808  0.11615346     1.01200
O324        O  0.19066022  0.05759494  0.09311778    -0.79300
O325        O  0.22476898  0.02035283  0.07572189    -0.79500
C326        C  0.24356324  0.00852676  0.06473188     1.01100
Cr327      Cr  0.27489384  0.05589940  0.05938239     1.93700
Cr328      Cr  0.24385670  0.09162862  0.09708916     1.93200
Cr329      Cr  0.21341211  0.05375307  0.06123434     1.39100
O330        O  0.24404248  0.06741212  0.07286114    -1.24500
O331        O  0.46881918  0.22523122  0.07587636    -0.86800
O332        O  0.43277509  0.18996730  0.09186132    -0.83800
C333        C  0.43312394  0.19748691  0.11541429     0.96700
O334        O  0.42060509  0.21871995  0.12156064    -0.83900
O335        O  0.41422358  0.27380981  0.11833343    -0.86500
C336        C  0.43556219  0.28758098  0.11506463     1.01200
O337        O  0.44712945  0.28801420  0.09316543    -0.79300
O338        O  0.46808649  0.26184657  0.05236534    -0.79500
C339        C  0.48031164  0.24431243  0.06520130     1.01100
O340        O  0.44333412  0.22886703  0.02607255    -0.86800
O341        O  0.40332271  0.20011644  0.04523669    -0.83900
C342        C  0.38178805  0.19780661  0.05739386     0.96700
O343        O  0.37804043  0.21017712  0.07953429    -0.83900
O344        O  0.37261115  0.26531001  0.07457064    -0.86500
C345        C  0.37729956  0.28737953  0.06300839     1.01200
O346        O  0.39998907  0.29688196  0.06480205    -0.79300
O347        O  0.41808821  0.26436568  0.02649100    -0.79500
C348        C  0.42968879  0.24611626  0.01440207     1.01100
Cr349      Cr  0.43592612  0.21367275  0.06084132     1.93700
Cr350      Cr  0.39740823  0.24224488  0.09740734     1.93200
Cr351      Cr  0.43232506  0.27499224  0.06020339     1.39100
O352        O  0.42160681  0.24362832  0.07322249    -1.24500
O353        O  0.26071979  0.46925620  0.05061014    -0.86800
O354        O  0.28774824  0.44944771  0.09114461    -0.83800
C355        C  0.28990897  0.43704585  0.11249189     0.96700
O356        O  0.27712738  0.41503647  0.11602475    -0.83900
O357        O  0.22122781  0.42047938  0.12056290    -0.86500
C358        C  0.19943899  0.43217852  0.11474680     1.01200
O359        O  0.19139787  0.43127832  0.09139874    -0.79300
O360        O  0.22481753  0.46899924  0.07503040    -0.79500
C361        C  0.24342408  0.48102310  0.06414775     1.01100
O362        O  0.26465717  0.41903168  0.02508349    -0.86800
O363        O  0.29818279  0.40252373  0.06266885    -0.83900
C364        C  0.29024559  0.37914680  0.06152414     0.96700
O365        O  0.26842923  0.37325812  0.07301019    -0.83900
O366        O  0.21237602  0.37774421  0.07853276    -0.86500
C367        C  0.19929643  0.38147178  0.05668352     1.01200
O368        O  0.20141693  0.40291665  0.04439823    -0.79300
O369        O  0.22864065  0.44348214  0.02499734    -0.79500
C370        C  0.24582010  0.42981266  0.01322521     1.01100
Cr371      Cr  0.27517720  0.43399527  0.05838098     1.93700
Cr372      Cr  0.24479113  0.39769938  0.09595098     1.93200
Cr373      Cr  0.21421031  0.43566242  0.06000546     1.39100
O374        O  0.24471920  0.42207367  0.07181798    -1.24500
O375        O  0.46893219  0.04625519  0.26720519    -0.86800
O376        O  0.44864431  0.08688815  0.29438714    -0.83800
C377        C  0.43629245  0.10845842  0.29508587     0.96700
O378        O  0.41417419  0.11136224  0.28240496    -0.83900
O379        O  0.41993529  0.11600298  0.22808738    -0.86500
C380        C  0.43243157  0.11111118  0.20662958     1.01200
O381        O  0.43166399  0.08810685  0.19752349    -0.79300
O382        O  0.46893874  0.07121633  0.23165184    -0.79500
C383        C  0.48079658  0.05964778  0.25001450     1.01100
O384        O  0.41940793  0.02050679  0.27023962    -0.86800
O385        O  0.40232655  0.05802000  0.30395386    -0.83900
C386        C  0.37911821  0.05622883  0.29577172     0.96700
O387        O  0.37302918  0.06757153  0.27389863    -0.83900
O388        O  0.37763650  0.07355695  0.21813769    -0.86500
C389        C  0.38190705  0.05200079  0.20477996     1.01200
O390        O  0.40378467  0.04036396  0.20636756    -0.79300
O391        O  0.44384589  0.02084433  0.23422755    -0.79500
C392        C  0.43035503  0.00885044  0.25133466     1.01100
Cr393      Cr  0.43377433  0.05390986  0.28128300     1.93700
Cr394      Cr  0.39714572  0.09101690  0.25059698     1.93200
Cr395      Cr  0.43602200  0.05614346  0.22007911     1.39100
O396        O  0.42191797  0.06731528  0.25063381    -1.24500
O397        O  0.07070375  0.46878605  0.23082496    -0.86800
O398        O  0.08878336  0.43110548  0.19705930    -0.83800
C399        C  0.11180217  0.43170153  0.20606629     0.96700
O400        O  0.11658513  0.41983383  0.22784817    -0.83900
O401        O  0.11197196  0.41468797  0.28203479    -0.86500
C402        C  0.10834846  0.43637219  0.29520635     1.01200
O403        O  0.08626040  0.44774801  0.29518349    -0.79300
O404        O  0.04650600  0.46815811  0.26710825    -0.79500
C405        C  0.05993845  0.48012627  0.25003928     1.01100
O406        O  0.02117322  0.44296003  0.23293440    -0.86800
O407        O  0.04156298  0.40252141  0.20568336    -0.83900
C408        C  0.05296351  0.38043261  0.20572064     0.96700
O409        O  0.07458170  0.37684822  0.21900290    -0.83900
O410        O  0.06914166  0.37269576  0.27324179    -0.86500
C411        C  0.05689800  0.37768845  0.29476525     1.01200
O412        O  0.05715763  0.40079973  0.30358914    -0.79300
O413        O  0.01990076  0.41912719  0.26943617    -0.79500
C414        C  0.00882562  0.42993140  0.25006997     1.01100
Cr415      Cr  0.05661412  0.43525050  0.21941077     1.93700
Cr416      Cr  0.09193055  0.39714501  0.25052718     1.93200
Cr417      Cr  0.05356859  0.43285217  0.28108026     1.39100
O418        O  0.06762839  0.42142876  0.25036111    -1.24500
O419        O  0.06963294  0.26367293  0.47476211    -0.86800
O420        O  0.08542319  0.29835608  0.43788314    -0.83800
C421        C  0.10897327  0.29077098  0.43865052     0.96700
O422        O  0.11527255  0.26923881  0.42682509    -0.83900
O423        O  0.11180019  0.21417892  0.42032617    -0.86500
C424        C  0.10851732  0.20046678  0.44167598     1.01200
O425        O  0.08669798  0.20029417  0.45343224    -0.79300
O426        O  0.04619898  0.22706160  0.47447823    -0.79500
C427        C  0.05907949  0.24465682  0.48647205     1.01100
O428        O  0.01965037  0.26000834  0.44967380    -0.86800
O429        O  0.03891227  0.28769801  0.40904203    -0.83900
C430        C  0.05142577  0.29017600  0.38775923     0.96700
O431        O  0.07374485  0.27808705  0.38427896    -0.83900
O432        O  0.06852024  0.22312059  0.37885759    -0.86500
C433        C  0.05684888  0.20118884  0.38365656     1.01200
O434        O  0.05814496  0.19180684  0.40647598    -0.79300
O435        O  0.01995334  0.22459303  0.42455267    -0.79500
C436        C  0.00790354  0.24306541  0.43587131     1.01100
Cr437      Cr  0.05448524  0.27482404  0.44177079     1.93700
Cr438      Cr  0.09121286  0.24592553  0.40365697     1.93200
Cr439      Cr  0.05371047  0.21364148  0.43875387     1.39100
O440        O  0.06688730  0.24475900  0.42779340    -1.24500
O441        O  0.26130233  0.01936316  0.44854029    -0.86800
O442        O  0.28863590  0.03962299  0.40798498    -0.83800
C443        C  0.28953115  0.05218293  0.38659677     0.96700
O444        O  0.27712479  0.07450310  0.38394970    -0.83900
O445        O  0.22290484  0.06910665  0.37921964    -0.86500
C446        C  0.20126041  0.05711020  0.38406407     1.01200
O447        O  0.19215847  0.05799372  0.40706804    -0.79300
O448        O  0.22557980  0.01995941  0.42385429    -0.79500
C449        C  0.24396520  0.00778127  0.43507712     1.01100
O450        O  0.26492467  0.06876788  0.47481285    -0.86800
O451        O  0.29850693  0.08577543  0.43728934    -0.83900
C452        C  0.29050793  0.10914495  0.43885700     0.96700
O453        O  0.26865881  0.11546187  0.42763641    -0.83900
O454        O  0.21288886  0.11130939  0.42146524    -0.86500
C455        C  0.19961720  0.10728392  0.44303073     1.01200
O456        O  0.20140949  0.08560608  0.45492501    -0.79300
O457        O  0.22860407  0.04495301  0.47447096    -0.79500
C458        C  0.24585377  0.05825004  0.48650688     1.01100
Cr459      Cr  0.27572690  0.05444850  0.44118293     1.93700
Cr460      Cr  0.24535691  0.09159573  0.40424377     1.93200
Cr461      Cr  0.21456503  0.05311528  0.43908539     1.39100
O462        O  0.24521815  0.06678621  0.42790253    -1.24500
O463        O  0.22462260  0.46884337  0.42482093    -0.86800
O464        O  0.19134877  0.43119864  0.40807611    -0.83800
C465        C  0.19941416  0.43291693  0.38484177     0.96700
O466        O  0.22138365  0.42147582  0.37880948    -0.83900
O467        O  0.27756228  0.41602069  0.38308961    -0.86500
C468        C  0.29070665  0.43767124  0.38707159     1.01200
O469        O  0.28878073  0.44963256  0.40875152    -0.79300
O470        O  0.26064676  0.46891112  0.44912658    -0.79500
C471        C  0.24340173  0.48069897  0.43558913     1.01100
O472        O  0.22821819  0.44298293  0.47447581    -0.86800
O473        O  0.20131235  0.40214972  0.45428608    -0.83900
C474        C  0.20087464  0.38054022  0.44205476     0.96700
O475        O  0.21413531  0.37751823  0.42028895    -0.83900
O476        O  0.26946478  0.37352211  0.42556524    -0.86500
C477        C  0.29081810  0.37925199  0.43802451     1.01200
O478        O  0.29868626  0.40265398  0.43755719    -0.79300
O479        O  0.26440834  0.41880346  0.47447152    -0.79500
C480        C  0.24559296  0.42966324  0.48629941     1.01100
Cr481      Cr  0.21416653  0.43526862  0.43935665     1.93700
Cr482      Cr  0.24555925  0.39825876  0.40295751     1.93200
Cr483      Cr  0.27542456  0.43395014  0.44138317     1.39100
O484        O  0.24507107  0.42210540  0.42754583    -1.24500
O485        O  0.46824877  0.26127611  0.44819297    -0.86800
O486        O  0.44761017  0.28899939  0.40803099    -0.83800
C487        C  0.43606327  0.28905642  0.38609140     0.96700
O488        O  0.41479611  0.27529942  0.38253348    -0.83900
O489        O  0.42101914  0.22020222  0.37881882    -0.86500
C490        C  0.43264528  0.19853197  0.38503867     1.01200
O491        O  0.43124214  0.19059945  0.40837079    -0.79300
O492        O  0.46854046  0.22452175  0.42476733    -0.79500
C493        C  0.48026781  0.24342901  0.43549422     1.01100
O494        O  0.41818470  0.26413936  0.47423384    -0.86800
O495        O  0.40028905  0.29732264  0.43671647    -0.83900
C496        C  0.37745104  0.28796792  0.43773156     0.96700
O497        O  0.37275693  0.26633765  0.42548545    -0.83900
O498        O  0.37783979  0.21190068  0.42016505    -0.86500
C499        C  0.38087134  0.19940926  0.44229948     1.01200
O500        O  0.40231022  0.20064157  0.45475351    -0.79300
O501        O  0.44303132  0.22839930  0.47441009    -0.79500
C502        C  0.42966099  0.24576954  0.48619985     1.01100
Cr503      Cr  0.43261945  0.27521422  0.44077945     1.93700
Cr504      Cr  0.39770568  0.24358604  0.40280950     1.93200
Cr505      Cr  0.43523401  0.21372630  0.43952049     1.39100
O506        O  0.42159789  0.24421084  0.42731209    -1.24500
O507        O  0.41881350  0.46928464  0.26937272    -0.86800
O508        O  0.40210606  0.43141765  0.30285567    -0.83800
C509        C  0.37910017  0.43240211  0.29382193     0.96700
O510        O  0.37419520  0.42041542  0.27214256    -0.83900
O511        O  0.37881670  0.41439794  0.21784268    -0.86500
C512        C  0.38155639  0.43647826  0.20522472     1.01200
O513        O  0.40286017  0.44908548  0.20623762    -0.79300
O514        O  0.44335795  0.46967574  0.23354285    -0.79500
C515        C  0.43005328  0.48138891  0.25102670     1.01100
O516        O  0.46927166  0.44384931  0.26640938    -0.86800
O517        O  0.44980371  0.40352214  0.29331913    -0.83900
C518        C  0.43793054  0.38189935  0.29507025     0.96700
O519        O  0.41626501  0.37794532  0.28199344    -0.83900
O520        O  0.42210303  0.37340560  0.22630285    -0.86500
C521        C  0.43329589  0.37945449  0.20442603     1.01200
O522        O  0.43231554  0.40286991  0.19650612    -0.79300
O523        O  0.47006792  0.42044854  0.22966203    -0.79500
C524        C  0.48135424  0.43049711  0.24921649     1.01100
Cr525      Cr  0.43398504  0.43601898  0.28032409     1.93700
Cr526      Cr  0.39905011  0.39759553  0.24963010     1.93200
Cr527      Cr  0.43613861  0.43444709  0.21912839     1.39100
O528        O  0.42285720  0.42224270  0.24966231    -1.24500
O529        O  0.26952160  0.29506254  0.98429590    -0.86800
O530        O  0.28883060  0.33565885  0.95692158    -0.83800
C531        C  0.30121633  0.35699451  0.95469765     0.96700
O532        O  0.32306541  0.36055732  0.96782121    -0.83900
O533        O  0.32289797  0.36068903  0.53236163    -0.86500
C534        C  0.30103356  0.35714656  0.54539792     1.01200
O535        O  0.28883914  0.33568721  0.54360209    -0.79300
O536        O  0.26927848  0.29536182  0.51671006    -0.79500
C537        C  0.25776217  0.30887503  0.00131790     1.01100
O538        O  0.31919371  0.26925332  0.98034613    -0.86800
O539        O  0.33566687  0.30701866  0.94676692    -0.83900
C540        C  0.35910286  0.30621670  0.95456531     0.96700
O541        O  0.36499910  0.31760357  0.97646042    -0.83900
O542        O  0.36476923  0.31720604  0.52416965    -0.86500
C543        C  0.35886565  0.30561084  0.54600136     1.01200
O544        O  0.33551806  0.30689185  0.55392454    -0.79300
O545        O  0.31926465  0.26954751  0.52011133    -0.79500
C546        C  0.30893967  0.25774814  0.99962858     1.01100
Cr547      Cr  0.30438955  0.30277374  0.96976166     1.93700
Cr548      Cr  0.34039162  0.34033157  0.50021578     1.93200
Cr549      Cr  0.30430153  0.30288788  0.53084836     1.39100
O550        O  0.31601231  0.31632376  0.50023879    -1.24500
O551        O  0.27043649  0.19316391  0.51617448    -0.86800
O552        O  0.29017601  0.15307128  0.54377810    -0.83800
C553        C  0.30191793  0.13127790  0.54554275     0.96700
O554        O  0.32352570  0.12698171  0.53233297    -0.83900
O555        O  0.31742682  0.12283575  0.97634451    -0.86500
C556        C  0.30630098  0.12898862  0.95443176     1.01200
O557        O  0.30797997  0.15226047  0.94639821    -0.79300
O558        O  0.27004469  0.16900332  0.98008015    -0.79500
C559        C  0.25821121  0.17986266  0.99896258     1.01100
O560        O  0.32104921  0.21822148  0.51896539    -0.86800
O561        O  0.33795765  0.18079573  0.55279640    -0.83900
C562        C  0.36097939  0.18150018  0.54371540     0.96700
O563        O  0.36587858  0.16910931  0.52225104    -0.83900
O564        O  0.36107347  0.16426011  0.96830153    -0.86500
C565        C  0.35809836  0.18658027  0.95597638     1.01200
O566        O  0.33640590  0.19867333  0.95648114    -0.79300
O567        O  0.29571021  0.21858223  0.98329595    -0.79500
C568        C  0.30928772  0.23047362  0.00024801     1.01100
Cr569      Cr  0.30591552  0.18529242  0.53032064     1.93700
Cr570      Cr  0.34093415  0.14642628  0.49987692     1.93200
Cr571      Cr  0.30350341  0.18354254  0.96922577     1.39100
O572        O  0.31715595  0.17121444  0.49982456    -1.24500
O573        O  0.16978715  0.26959461  0.97972476    -0.86800
O574        O  0.15214617  0.30734670  0.94624760    -0.83800
C575        C  0.12875977  0.30649376  0.95415801     0.96700
O576        O  0.12268261  0.31807216  0.97589423    -0.83900
O577        O  0.12715285  0.32373801  0.53183402    -0.86500
C578        C  0.13117533  0.30209944  0.54508497     1.01200
O579        O  0.15293160  0.29027692  0.54363500    -0.79300
O580        O  0.19289048  0.27011829  0.51639803    -0.79500
C581        C  0.18009134  0.25831146  0.99921819     1.01100
O582        O  0.21862171  0.29610463  0.98349315    -0.86800
O583        O  0.19837243  0.33658053  0.95578222    -0.83900
C584        C  0.18608659  0.35819626  0.95493939     0.96700
O585        O  0.16404297  0.36124938  0.96764612    -0.83900
O586        O  0.16986671  0.36561631  0.52251445    -0.86500
C587        C  0.18197828  0.36070637  0.54416091     1.01200
O588        O  0.18142505  0.33759988  0.55306315    -0.79300
O589        O  0.21885990  0.31987370  0.51934120    -0.79500
C590        C  0.23026396  0.30947665  0.00086074     1.01100
Cr591      Cr  0.18362099  0.30346278  0.96897319     1.93700
Cr592      Cr  0.14714754  0.34104292  0.49967187     1.93200
Cr593      Cr  0.18545462  0.30553453  0.53039082     1.39100
O594        O  0.17163843  0.31690022  0.49968722    -1.24500
O595        O  0.21865973  0.16828847  0.98069167    -0.86800
O596        O  0.18120899  0.15136548  0.94661590    -0.83800
C597        C  0.18244534  0.12840020  0.95569654     0.96700
O598        O  0.17050039  0.12337863  0.97734155    -0.83900
O599        O  0.16436573  0.12786221  0.53187188    -0.86500
C600        C  0.18618197  0.13105391  0.54472630     1.01200
O601        O  0.19823761  0.15270275  0.54402474    -0.79300
O602        O  0.21871359  0.19310192  0.51632325    -0.79500
C603        C  0.23049353  0.17947579  0.99928838     1.01100
O604        O  0.19322319  0.21854219  0.98306621    -0.86800
O605        O  0.15295051  0.19873654  0.95542142    -0.83900
C606        C  0.13118400  0.18696472  0.95481225     0.96700
O607        O  0.12770659  0.16520803  0.96778992    -0.83900
O608        O  0.12308747  0.17091725  0.52275713    -0.86500
C609        C  0.12819730  0.18276171  0.54448638     1.01200
O610        O  0.15134246  0.18204236  0.55323653    -0.79300
O611        O  0.16923662  0.21947789  0.51941299    -0.79500
C612        C  0.18001951  0.23082820  0.00020937     1.01100
Cr613      Cr  0.18547835  0.18323582  0.96916397     1.93700
Cr614      Cr  0.14743659  0.14779873  0.50012338     1.93200
Cr615      Cr  0.18333121  0.18573678  0.53055271     1.39100
O616        O  0.17166254  0.17196360  0.49991585    -1.24500
O617        O  0.21873846  0.47444669  0.82509484    -0.86800
O618        O  0.18067285  0.44153788  0.84178950    -0.83800
C619        C  0.18243781  0.44957368  0.86503452     0.96700
O620        O  0.17118847  0.47159613  0.87114989    -0.83900
O621        O  0.16632882  0.02741175  0.86706941    -0.86500
C622        C  0.18797043  0.04046915  0.86294873     1.01200
O623        O  0.19983253  0.03848791  0.84123430    -0.79300
O624        O  0.21901713  0.01019237  0.80096240    -0.79500
C625        C  0.23071261  0.49318480  0.81436371     1.01100
O626        O  0.19288623  0.47842389  0.77542164    -0.86800
O627        O  0.15190890  0.45177521  0.79562015    -0.83900
C628        C  0.13041860  0.45117960  0.80800503     0.96700
O629        O  0.12742571  0.46439509  0.82978633    -0.83900
O630        O  0.12369716  0.01941312  0.82487808    -0.86500
C631        C  0.12944574  0.04074201  0.81235280     1.01200
O632        O  0.15289095  0.04843631  0.81252972    -0.79300
O633        O  0.16887319  0.01388453  0.77570188    -0.79500
C634        C  0.17985139  0.49605323  0.76362567     1.01100
Cr635      Cr  0.18506092  0.46431234  0.81053782     1.93700
Cr636      Cr  0.14818804  0.49579947  0.84702066     1.93200
Cr637      Cr  0.18408766  0.02504944  0.80871409     1.39100
O638        O  0.17206913  0.49523901  0.82244228    -1.24500
O639        O  0.19388958  0.47913954  0.72430009    -0.86800
O640        O  0.15349806  0.45155351  0.70507128    -0.83800
C641        C  0.13223195  0.44901368  0.69259324     0.96700
O642        O  0.12873699  0.46125466  0.67028685    -0.83900
O643        O  0.12356887  0.01587698  0.67630992    -0.86500
C644        C  0.12825627  0.03773793  0.68819062     1.01200
O645        O  0.15111372  0.04705268  0.68692931    -0.79300
O646        O  0.16869816  0.01364718  0.72440481    -0.79500
C647        C  0.18004126  0.49616189  0.73606856     1.01100
O648        O  0.21924355  0.47536903  0.67438657    -0.86800
O649        O  0.18192409  0.44117312  0.65823622    -0.83900
C650        C  0.18288373  0.44890879  0.63477834     0.96700
O651        O  0.17132987  0.47065396  0.62861691    -0.83900
O652        O  0.16520507  0.02608675  0.63327417    -0.86500
C653        C  0.18671772  0.03956287  0.63714789     1.01200
O654        O  0.19869480  0.03804455  0.65875248    -0.79300
O655        O  0.21918550  0.01116144  0.69885721    -0.79500
C656        C  0.23099701  0.49417687  0.68528851     1.01100
Cr657      Cr  0.18612988  0.46436442  0.68942624     1.93700
Cr658      Cr  0.14810893  0.49380917  0.65294318     1.93200
Cr659      Cr  0.18344022  0.02481643  0.69123291     1.39100
O660        O  0.17220803  0.49452581  0.67728480    -1.24500
O661        O  0.29564543  0.47816805  0.77561972    -0.86800
O662        O  0.33617834  0.45064452  0.79513405    -0.83800
C663        C  0.35793873  0.44900365  0.80690308     0.96700
O664        O  0.36191588  0.46218167  0.82853529    -0.83900
O665        O  0.36608534  0.01827880  0.82259241    -0.86500
C666        C  0.35969187  0.04021032  0.81149406     1.01200
O667        O  0.33631350  0.04808720  0.81315889    -0.79300
O668        O  0.31954278  0.01442770  0.77552003    -0.79500
C669        C  0.30884648  0.49556764  0.76370892     1.01100
O670        O  0.27033748  0.47484599  0.82598039    -0.86800
O671        O  0.30809974  0.44115862  0.84274693    -0.83900
C672        C  0.30714646  0.45013948  0.86579004     0.96700
O673        O  0.31941764  0.47166180  0.87080896    -0.83900
O674        O  0.32517553  0.02655713  0.86634563    -0.86500
C675        C  0.30287614  0.03898310  0.86369609     1.01200
O676        O  0.29024966  0.03795146  0.84235178    -0.79300
O677        O  0.27012319  0.01066187  0.80157527    -0.79500
C678        C  0.25831973  0.49338034  0.81481430     1.01100
Cr679      Cr  0.30360825  0.46386921  0.81089896     1.93700
Cr680      Cr  0.34210214  0.49445445  0.84600103     1.93200
Cr681      Cr  0.30512741  0.02513260  0.80914281     1.39100
O682        O  0.31733886  0.49449062  0.82231689    -1.24500
O683        O  0.32096703  0.01359618  0.72419029    -0.86800
O684        O  0.33829247  0.04754411  0.68673316    -0.83800
C685        C  0.36133581  0.03853333  0.68784044     0.96700
O686        O  0.36649160  0.01685361  0.67580632    -0.83900
O687        O  0.36172448  0.46256412  0.66976284    -0.86500
C688        C  0.35856042  0.44960573  0.69154683     1.01200
O689        O  0.33679471  0.44995171  0.70346582    -0.79300
O690        O  0.29641737  0.47773976  0.72402199    -0.79500
C691        C  0.30939804  0.49524083  0.73600778     1.01100
O692        O  0.27100997  0.01114703  0.69859900    -0.86800
O693        O  0.29115978  0.03866280  0.65812510    -0.83900
C694        C  0.30289697  0.03909644  0.63627854     0.96700
O695        O  0.32473398  0.02616011  0.63285450    -0.83900
O696        O  0.31840228  0.47163625  0.62848528    -0.86500
C697        C  0.30641847  0.44998495  0.63361195     1.01200
O698        O  0.30761373  0.44098572  0.65661232    -0.79300
O699        O  0.27045285  0.47516144  0.67425964    -0.79500
C700        C  0.25870525  0.49400434  0.68530300     1.01100
Cr701      Cr  0.30639160  0.02505202  0.69085800     1.93700
Cr702      Cr  0.34159467  0.49427592  0.65279384     1.93200
Cr703      Cr  0.30386807  0.46364309  0.68858397     1.39100
O704        O  0.31751263  0.49435856  0.67711226    -1.24500
O705        O  0.47753928  0.19322285  0.77579936    -0.86800
O706        O  0.45018745  0.15285476  0.79627603    -0.83800
C707        C  0.44942114  0.13140797  0.80873344     0.96700
O708        O  0.46209302  0.12865006  0.83085028    -0.83900
O709        O  0.01651086  0.12384594  0.82488672    -0.86500
C710        C  0.03806243  0.12844349  0.81249720     1.01200
O711        O  0.04715628  0.15143649  0.81316066    -0.79300
O712        O  0.01313511  0.16821309  0.77600098    -0.79500
C713        C  0.49490755  0.17970542  0.76417028     1.01100
O714        O  0.47368311  0.21989869  0.82469018    -0.86800
O715        O  0.44034561  0.18250546  0.84237648    -0.83900
C716        C  0.44827166  0.18379745  0.86573864     0.96700
O717        O  0.47021280  0.17248650  0.87184093    -0.83900
O718        O  0.02631189  0.16661544  0.86709342    -0.86500
C719        C  0.03982949  0.18800728  0.86274173     1.01200
O720        O  0.03823802  0.19953712  0.84089814    -0.79300
O721        O  0.01056057  0.21901136  0.80102889    -0.79500
C722        C  0.49315857  0.23111624  0.81448408     1.01100
Cr723      Cr  0.46313117  0.18607047  0.81088290     1.93700
Cr724      Cr  0.49381526  0.14908296  0.84783003     1.93200
Cr725      Cr  0.02455934  0.18356518  0.80880480     1.39100
O726        O  0.49380246  0.17274526  0.82308335    -1.24500
O727        O  0.47505629  0.21994318  0.67529952    -0.86800
O728        O  0.44108578  0.18254491  0.65855209    -0.83800
C729        C  0.44877589  0.18263755  0.63507444     0.96700
O730        O  0.47049426  0.17064424  0.62932525    -0.83900
O731        O  0.02665778  0.16558590  0.63365051    -0.86500
C732        C  0.03967693  0.18740987  0.63742382     1.01200
O733        O  0.03806044  0.19939571  0.65904627    -0.79300
O734        O  0.01119389  0.21914762  0.69933209    -0.79500
C735        C  0.49441636  0.23123621  0.68568017     1.01100
O736        O  0.47854225  0.19403445  0.72483842    -0.86800
O737        O  0.45087954  0.15368489  0.70531901    -0.83900
C738        C  0.44908383  0.13202785  0.69331264     0.96700
O739        O  0.46230430  0.12810621  0.67161333    -0.83900
O740        O  0.01835938  0.12346250  0.67680431    -0.86500
C741        C  0.04014820  0.12916202  0.68853546     1.01200
O742        O  0.04812340  0.15248909  0.68748275    -0.79300
O743        O  0.01404775  0.16894512  0.72471988    -0.79500
C744        C  0.49549960  0.18018452  0.73666423     1.01100
Cr745      Cr  0.46409793  0.18644063  0.68989217     1.93700
Cr746      Cr  0.49447696  0.14803353  0.65400762     1.93200
Cr747      Cr  0.02510298  0.18391163  0.69159799     1.39100
O748        O  0.49455031  0.17251214  0.67805782    -1.24500
O749        O  0.47472621  0.32040015  0.72447753    -0.86800
O750        O  0.44072601  0.33655188  0.68675876    -0.83800
C751        C  0.44865494  0.35985631  0.68799647     0.96700
O752        O  0.47022092  0.36590148  0.67632412    -0.83900
O753        O  0.02506891  0.36218117  0.67054676    -0.86500
C754        C  0.03875518  0.35867774  0.69188636     1.01200
O755        O  0.03876850  0.33676677  0.70354520    -0.79300
O756        O  0.01123494  0.29667425  0.72447532    -0.79500
C757        C  0.49359099  0.30961429  0.73640399     1.01100
O758        O  0.47830338  0.27057849  0.69920469    -0.86800
O759        O  0.45076322  0.28985607  0.65834887    -0.83900
C760        C  0.44990266  0.30181197  0.63661146     0.96700
O761        O  0.46243407  0.32387308  0.63334493    -0.83900
O762        O  0.01693500  0.31918800  0.62877360    -0.86500
C763        C  0.03864322  0.30706615  0.63367085     1.01200
O764        O  0.04755232  0.30742498  0.65674247    -0.79300
O765        O  0.01438949  0.26988741  0.67505534    -0.79500
C766        C  0.49528058  0.25858375  0.68565570     1.01100
Cr767      Cr  0.46386517  0.30542499  0.69115743     1.93700
Cr768      Cr  0.49376259  0.34171080  0.65342945     1.93200
Cr769      Cr  0.02523687  0.30375117  0.68891147     1.39100
O770        O  0.49438811  0.31728038  0.67750449    -1.24500
O771        O  0.01045821  0.29580464  0.77597123    -0.86800
O772        O  0.03847223  0.33558404  0.79585648    -0.83800
C773        C  0.04051969  0.35718331  0.80783368     0.96700
O774        O  0.02784917  0.36112188  0.82975024    -0.83900
O775        O  0.47320280  0.36658569  0.82345964    -0.86500
C776        C  0.45120580  0.36174398  0.81211544     1.01200
O777        O  0.44170960  0.33902523  0.81407057    -0.79300
O778        O  0.47470802  0.32072875  0.77599132    -0.79500
C779        C  0.49331090  0.30936690  0.76414460     1.01100
O780        O  0.01357213  0.26960900  0.82547019    -0.86800
O781        O  0.04738732  0.30699000  0.84341267    -0.83900
C782        C  0.03850711  0.30678786  0.86655490     0.96700
O783        O  0.01709485  0.31914629  0.87156941    -0.83900
O784        O  0.46309254  0.32554890  0.86720729    -0.86500
C785        C  0.45020209  0.30362904  0.86425131     1.01200
O786        O  0.45033060  0.29171357  0.84251878    -0.79300
O787        O  0.47679730  0.27093192  0.80199828    -0.79500
C788        C  0.49407287  0.25852304  0.81492977     1.01100
Cr789      Cr  0.02491575  0.30308635  0.81125975     1.93700
Cr790      Cr  0.49514589  0.34197998  0.84688133     1.93200
Cr791      Cr  0.46352938  0.30657363  0.80960693     1.39100
O792        O  0.49453424  0.31734319  0.82301752    -1.24500
O793        O  0.02026342  0.26113029  0.55131909    -0.86800
O794        O  0.04012461  0.28878881  0.59122324    -0.83800
C795        C  0.05218165  0.29058183  0.61278321     0.96700
O796        O  0.07414994  0.27767240  0.61647114    -0.83900
O797        O  0.06800908  0.22272533  0.62166708    -0.86500
C798        C  0.05637745  0.20084789  0.61673775     1.01200
O799        O  0.05769487  0.19167197  0.59378961    -0.79300
O800        O  0.02014122  0.22558794  0.57643944    -0.79500
C801        C  0.00832982  0.24406511  0.56491739     1.01100
O802        O  0.07037146  0.26341914  0.52576491    -0.86800
O803        O  0.08753077  0.29773497  0.56285927    -0.83900
C804        C  0.11057717  0.28867130  0.56179359     0.96700
O805        O  0.11569197  0.26691123  0.57366070    -0.83900
O806        O  0.11101303  0.21202660  0.58012233    -0.86500
C807        C  0.10737685  0.19918192  0.55817445     1.01200
O808        O  0.08576322  0.20084587  0.54621908    -0.79300
O809        O  0.04549865  0.22782472  0.52619367    -0.79500
C810        C  0.05906808  0.24478559  0.51410645     1.01100
Cr811      Cr  0.05558976  0.27520145  0.55879114     1.93700
Cr812      Cr  0.09119886  0.24482281  0.59697783     1.93200
Cr813      Cr  0.05326475  0.21407712  0.56168371     1.39100
O814        O  0.06700732  0.24471631  0.57282698    -1.24500
O815        O  0.06933005  0.01914871  0.77045611    -0.86800
O816        O  0.08591509  0.05687956  0.80400062    -0.83800
C817        C  0.10938385  0.05630150  0.79623877     0.96700
O818        O  0.11519436  0.06797272  0.77443119    -0.83900
O819        O  0.11100960  0.07290530  0.71823068    -0.86500
C820        C  0.10743594  0.05103746  0.70513402     1.01200
O821        O  0.08593792  0.03892760  0.70688692    -0.79300
O822        O  0.04569062  0.01940082  0.73393204    -0.74700
C823        C  0.05931591  0.00761761  0.75104694     1.01100
O824        O  0.01972324  0.04510275  0.76632167    -0.86800
O825        O  0.03908018  0.08585480  0.79374765    -0.83900
C826        C  0.05121395  0.10740347  0.79556433     0.96700
O827        O  0.07302681  0.11095499  0.78244754    -0.83900
O828        O  0.06771782  0.11508468  0.72636220    -0.86500
C829        C  0.05606011  0.10923934  0.70456251     1.01200
O830        O  0.05714361  0.08583028  0.69666206    -0.79300
O831        O  0.01994524  0.06956724  0.73044572    -0.79500
C832        C  0.00804208  0.05886481  0.74920623     1.01100
Cr833      Cr  0.05460714  0.05282089  0.78091898     1.93700
Cr834      Cr  0.09065843  0.09061383  0.75034838     1.93200
Cr835      Cr  0.05319894  0.05450921  0.71973826     1.39100
O836        O  0.06660965  0.06626437  0.75036160    -1.24500
O837        O  0.26363947  0.07051475  0.52610504    -0.86800
O838        O  0.29745944  0.08783508  0.56361176    -0.83800
C839        C  0.28848023  0.11089389  0.56250119     0.96700
O840        O  0.26681401  0.11613155  0.57445598    -0.83900
O841        O  0.21257646  0.11192359  0.58035040    -0.86500
C842        C  0.19970259  0.10869222  0.55853001     1.01200
O843        O  0.20005378  0.08687744  0.54668673    -0.79300
O844        O  0.22754777  0.04634765  0.52620028    -0.79500
C845        C  0.24519674  0.05913419  0.51422329     1.01100
O846        O  0.26090474  0.02068404  0.55187803    -0.86800
O847        O  0.28848715  0.04085923  0.59230265    -0.83900
C848        C  0.28897443  0.05275903  0.61407114     0.96700
O849        O  0.27588688  0.07452787  0.61743995    -0.83900
O850        O  0.22154772  0.06863093  0.62174526    -0.86500
C851        C  0.19991701  0.05665360  0.61661873     1.01200
O852        O  0.19088065  0.05789734  0.59363497    -0.79300
O853        O  0.22478009  0.02051899  0.57611319    -0.79500
C854        C  0.24341560  0.00871185  0.56485200     1.01100
Cr855      Cr  0.27493895  0.05599709  0.55950512     1.93700
Cr856      Cr  0.24418991  0.09171516  0.59742495     1.93200
Cr857      Cr  0.21349553  0.05395746  0.56167933     1.39100
O858        O  0.24420945  0.06753260  0.57317747    -1.24500
O859        O  0.46893907  0.22497069  0.57555133    -0.86800
O860        O  0.43239780  0.19040762  0.59154160    -0.83800
C861        C  0.43265378  0.19814145  0.61500662     0.96700
O862        O  0.42011272  0.21949623  0.62085639    -0.83900
O863        O  0.41463083  0.27472248  0.61732319    -0.86500
C864        C  0.43631848  0.28795894  0.61425084     1.01200
O865        O  0.44825780  0.28789420  0.59250826    -0.79300
O866        O  0.46876903  0.26122720  0.55161715    -0.79500
C867        C  0.48069693  0.24382767  0.56482630     1.01100
O868        O  0.44354112  0.22866743  0.52551951    -0.86800
O869        O  0.40332049  0.20042787  0.54480816    -0.83900
C870        C  0.38167772  0.19847473  0.55681468     0.96700
O871        O  0.37765122  0.21155373  0.57851909    -0.83900
O872        O  0.37289188  0.26766767  0.57358178    -0.86500
C873        C  0.37862906  0.28961878  0.56209716     1.01200
O874        O  0.40184543  0.29777817  0.56352984    -0.79300
O875        O  0.41897792  0.26464766  0.52576204    -0.79500
C876        C  0.43000661  0.24598405  0.51379844     1.01100
Cr877      Cr  0.43592330  0.21382611  0.56041375     1.93700
Cr878      Cr  0.39736438  0.24347357  0.59640333     1.93200
Cr879      Cr  0.43340600  0.27509428  0.55938423     1.39100
O880        O  0.42185547  0.24411589  0.57243362    -1.24500
O881        O  0.26083413  0.46869914  0.55118282    -0.86800
O882        O  0.28771606  0.44863734  0.59147702    -0.83800
C883        C  0.28939267  0.43666032  0.61307282     0.96700
O884        O  0.27613952  0.41498689  0.61692253    -0.83900
O885        O  0.22040917  0.42133330  0.62131526    -0.86500
C886        C  0.19866104  0.43287285  0.61520889     1.01200
O887        O  0.19071988  0.43162871  0.59183126    -0.79300
O888        O  0.22457554  0.46905538  0.57523654    -0.79500
C889        C  0.24341576  0.48078107  0.56436924     1.01100
O890        O  0.26377283  0.41813141  0.52582325    -0.86800
O891        O  0.29705176  0.40084388  0.56359192    -0.83900
C892        C  0.28779608  0.37793878  0.56231209     0.96700
O893        O  0.26596110  0.37315816  0.57411227    -0.83900
O894        O  0.21095671  0.37826564  0.57981638    -0.86500
C895        C  0.19859796  0.38160622  0.55752415     1.01200
O896        O  0.20095800  0.40290492  0.54503567    -0.79300
O897        O  0.22829899  0.44334019  0.52554812    -0.79500
C898        C  0.24543046  0.42959314  0.51383122     1.01100
Cr899      Cr  0.27472034  0.43307976  0.55900603     1.93700
Cr900      Cr  0.24348512  0.39800773  0.59704047     1.93200
Cr901      Cr  0.21370003  0.43572551  0.56048668     1.39100
O902        O  0.24397852  0.42201669  0.57261384    -1.24500
O903        O  0.46870894  0.04661035  0.76729715    -0.86800
O904        O  0.44835461  0.08730416  0.79443035    -0.83800
C905        C  0.43589203  0.10882092  0.79515094     0.96700
O906        O  0.41380283  0.11163352  0.78239506    -0.83900
O907        O  0.41963228  0.11618395  0.72799876    -0.86500
C908        C  0.43206675  0.11128463  0.70650462     1.01200
O909        O  0.43139006  0.08822497  0.69749791    -0.79300
O910        O  0.46862511  0.07151078  0.73169984    -0.79500
C911        C  0.48051837  0.05996912  0.75004353     1.01100
O912        O  0.41930382  0.02067828  0.77046571    -0.86800
O913        O  0.40211235  0.05839875  0.80396512    -0.83900
C914        C  0.37893998  0.05650953  0.79572125     0.96700
O915        O  0.37283038  0.06776958  0.77382814    -0.83900
O916        O  0.37746251  0.07363533  0.71809161    -0.86500
C917        C  0.38177868  0.05202801  0.70482671     1.01200
O918        O  0.40363222  0.04038859  0.70654516    -0.79300
O919        O  0.44368466  0.02101375  0.73441943    -0.79500
C920        C  0.43018602  0.00900637  0.75152052     1.01100
Cr921      Cr  0.43357374  0.05422329  0.78138334     1.93700
Cr922      Cr  0.39689043  0.09120068  0.75055684     1.93200
Cr923      Cr  0.43579693  0.05629898  0.72017590     1.39100
O924        O  0.42168674  0.06752536  0.75069279    -1.24500
O925        O  0.07048456  0.46915471  0.73067066    -0.86800
O926        O  0.08851117  0.43154036  0.69683602    -0.83800
C927        C  0.11149358  0.43234286  0.70590495     0.96700
O928        O  0.11635765  0.42042707  0.72762825    -0.83900
O929        O  0.11184693  0.41507815  0.78170890    -0.86500
C930        C  0.10817598  0.43678494  0.79482767     1.01200
O931        O  0.08606390  0.44808882  0.79483748    -0.79300
O932        O  0.04626936  0.46844670  0.76693294    -0.79500
C933        C  0.05976510  0.48045160  0.74993237     1.01100
O934        O  0.02095491  0.44328537  0.73281294    -0.86800
O935        O  0.04136042  0.40293021  0.70549076    -0.83900
C936        C  0.05285115  0.38088972  0.70544259     0.96700
O937        O  0.07453565  0.37734475  0.71861382    -0.83900
O938        O  0.06913143  0.37297235  0.77280684    -0.86500
C939        C  0.05695795  0.37793211  0.79436913     1.01200
O940        O  0.05723981  0.40102745  0.80323229    -0.79300
O941        O  0.01976669  0.41929670  0.76921271    -0.79500
C942        C  0.00864941  0.43012424  0.74987818     1.01100
Cr943      Cr  0.05637883  0.43564761  0.71920869     1.93700
Cr944      Cr  0.09183214  0.39756244  0.75018238     1.93200
Cr945      Cr  0.05342110  0.43311223  0.78082681     1.39100
O946        O  0.06745975  0.42177457  0.75009332    -1.24500
O947        O  0.06990757  0.26337646  0.97441339    -0.86800
O948        O  0.08565552  0.29825529  0.93760410    -0.83800
C949        C  0.10919940  0.29069518  0.93827290     0.96700
O950        O  0.11554358  0.26928582  0.92625959    -0.83900
O951        O  0.11217031  0.21433591  0.91970393    -0.86500
C952        C  0.10895196  0.20077244  0.94115460     1.01200
O953        O  0.08714064  0.20050749  0.95289051    -0.79300
O954        O  0.04646587  0.22677809  0.97404474    -0.79500
C955        C  0.05909164  0.24449593  0.98612829     1.01100
O956        O  0.02009008  0.25975804  0.94920040    -0.86800
O957        O  0.03921793  0.28779821  0.90871804    -0.83900
C958        C  0.05168333  0.29033817  0.88740129     0.96700
O959        O  0.07395787  0.27821071  0.88382184    -0.83900
O960        O  0.06864367  0.22329414  0.87830857    -0.86500
C961        C  0.05700096  0.20135357  0.88314163     1.01200
O962        O  0.05868887  0.19184303  0.90588540    -0.79300
O963        O  0.02026996  0.22431281  0.92408801    -0.79500
C964        C  0.00828990  0.24272369  0.93556796     1.01100
Cr965      Cr  0.05479735  0.27470699  0.94140698     1.93700
Cr966      Cr  0.09146415  0.24602761  0.90309407     1.93200
Cr967      Cr  0.05411629  0.21356137  0.93822590     1.39100
O968        O  0.06719605  0.24474659  0.92729865    -1.24500
O969        O  0.26096208  0.01999247  0.94827571    -0.86800
O970        O  0.28841580  0.04007659  0.90769821    -0.83800
C971        C  0.28940489  0.05260165  0.88629145     0.96700
O972        O  0.27701679  0.07492279  0.88356524    -0.83900
O973        O  0.22279029  0.06949787  0.87873137    -0.86500
C974        C  0.20117556  0.05744349  0.88360194     1.01200
O975        O  0.19200538  0.05848960  0.90657308    -0.79300
O976        O  0.22522617  0.02041854  0.92359976    -0.79500
C977        C  0.24352104  0.00831303  0.93502674     1.01100
O978        O  0.26463197  0.06941114  0.97445910    -0.86800
O979        O  0.29830454  0.08629484  0.93690157    -0.83900
C980        C  0.29032548  0.10967077  0.93846210     0.96700
O981        O  0.26850583  0.11599323  0.92717055    -0.83900
O982        O  0.21274002  0.11188601  0.92088996    -0.86500
C983        C  0.19950074  0.10787212  0.94247621     1.01200
O984        O  0.20126696  0.08620702  0.95436320    -0.79300
O985        O  0.22826898  0.04564758  0.97411843    -0.79500
C986        C  0.24565839  0.05874367  0.98618315     1.01100
Cr987      Cr  0.27546460  0.05501178  0.94084125     1.93700
Cr988      Cr  0.24521322  0.09208219  0.90375695     1.93200
Cr989      Cr  0.21432286  0.05369225  0.93865296     1.39100
O990        O  0.24500256  0.06731550  0.92747016    -1.24500
O991        O  0.22458895  0.46861889  0.92451798    -0.86800
O992        O  0.19064917  0.43153527  0.90762878    -0.83800
C993        C  0.19859365  0.43331373  0.88433608     0.96700
O994        O  0.22044915  0.42185671  0.87807839    -0.83900
O995        O  0.27650116  0.41546558  0.88222411    -0.86500
C996        C  0.29004107  0.43686151  0.88640006     1.01200
O997        O  0.28848796  0.44849977  0.90823918    -0.79300
O998        O  0.26087181  0.46802139  0.94855990    -0.79500
C999        C  0.24357005  0.48014700  0.93532347     1.01100
O1000       O  0.22801444  0.44256943  0.97394162    -0.86800
O1001       O  0.20061000  0.40214862  0.95374477    -0.83900
C1002       C  0.19974998  0.38067378  0.94131902     0.96700
O1003       O  0.21233751  0.37784307  0.91915474    -0.83900
O1004       O  0.26676832  0.37297978  0.92476653    -0.86500
C1005       C  0.28828506  0.37771353  0.93723139     1.01200
O1006       O  0.29748963  0.40062874  0.93621222    -0.79300
O1007       O  0.26368311  0.41760989  0.97370068    -0.79500
C1008       C  0.24536864  0.42915596  0.98568826     1.01100
Cr1009     Cr  0.21365577  0.43519011  0.93888375     1.93700
Cr1010     Cr  0.24407275  0.39814653  0.90199487     1.93200
Cr1011     Cr  0.27495178  0.43269796  0.94062823     1.39100
O1012       O  0.24423791  0.42173002  0.92676830    -1.24500
O1013       O  0.46890787  0.26105412  0.94883897    -0.86800
O1014       O  0.44878286  0.28907015  0.90836542    -0.83800
C1015       C  0.43675468  0.28972192  0.88665569     0.96700
O1016       O  0.41509676  0.27657604  0.88334992    -0.83900
O1017       O  0.42036622  0.22129775  0.87936501    -0.86500
C1018       C  0.43205935  0.19953409  0.88532927     1.01200
O1019       O  0.43079177  0.19146305  0.90861153    -0.79300
O1020       O  0.46852980  0.22461611  0.92509314    -0.79500
C1021       C  0.48059075  0.24324021  0.93587727     1.01100
O1022       O  0.41913064  0.26515723  0.97488347    -0.86800
O1023       O  0.40230719  0.29873476  0.93759540    -0.83900
C1024       C  0.37897909  0.29074221  0.93837525     0.96700
O1025       O  0.37315544  0.26921276  0.92630115    -0.83900
O1026       O  0.37724364  0.21389376  0.92108272    -0.86500
C1027       C  0.38045290  0.20068960  0.94278377     1.01200
O1028       O  0.40202522  0.20140418  0.95504618    -0.79300
O1029       O  0.44295349  0.22871040  0.97494034    -0.79500
C1030       C  0.42986530  0.24629869  0.98677105     1.01100
Cr1031     Cr  0.43374512  0.27576447  0.94136621     1.93700
Cr1032     Cr  0.39758303  0.24525275  0.90365831     1.93200
Cr1033     Cr  0.43503943  0.21432564  0.93988754     1.39100
O1034       O  0.42176178  0.24513801  0.92796671    -1.24500
O1035       O  0.41837313  0.46928556  0.76874685    -0.86800
O1036       O  0.40178624  0.43160250  0.80253692    -0.83800
C1037       C  0.37875182  0.43227956  0.79355467     0.96700
O1038       O  0.37391501  0.42010778  0.77197214    -0.83900
O1039       O  0.37849243  0.41413737  0.71778184    -0.86500
C1040       C  0.38110439  0.43629261  0.70526464     1.01200
O1041       O  0.40242090  0.44889901  0.70612284    -0.79300
O1042       O  0.44309187  0.46960742  0.73305673    -0.79500
C1043       C  0.42980449  0.48136056  0.75049969     1.01100
O1044       O  0.46895067  0.44398384  0.76606938    -0.86800
O1045       O  0.44959772  0.40385267  0.79328416    -0.83900
C1046       C  0.43789227  0.38214363  0.79506886     0.96700
O1047       O  0.41632281  0.37795237  0.78189150    -0.83900
O1048       O  0.42208212  0.37329638  0.72610275    -0.86500
C1049       C  0.43313676  0.37941454  0.70416384     1.01200
O1050       O  0.43191873  0.40280733  0.69624864    -0.79300
O1051       O  0.46987083  0.42050551  0.72935205    -0.79500
C1052       C  0.48110467  0.43060046  0.74894443     1.01100
Cr1053     Cr  0.43365850  0.43617391  0.77999724     1.93700
Cr1054     Cr  0.39892287  0.39741474  0.74948829     1.93200
Cr1055     Cr  0.43581423  0.43436202  0.71883666     1.39100
O1056       O  0.42261872  0.42217969  0.74942335    -1.24500
O1057       O  0.26949579  0.79499804  0.48408955    -0.86800
O1058       O  0.28898158  0.83554149  0.45679187    -0.83800
C1059       C  0.30128281  0.85694357  0.45477053     0.96700
O1060       O  0.32305171  0.86054500  0.46799583    -0.83900
O1061       O  0.32286590  0.86080875  0.03237013    -0.86500
C1062       C  0.30100685  0.85725850  0.04540057     1.01200
O1063       O  0.28879128  0.83581604  0.04358853    -0.79300
O1064       O  0.26922211  0.79548870  0.01674354    -0.79500
C1065       C  0.25769705  0.80884965  0.50105847     1.01100
O1066       O  0.31923972  0.76918193  0.48038760    -0.86800
O1067       O  0.33583557  0.80686753  0.44682133    -0.83900
C1068       C  0.35925869  0.80617579  0.45466702     0.96700
O1069       O  0.36504745  0.81762327  0.47657082    -0.83900
O1070       O  0.36469948  0.81733974  0.02420885    -0.86500
C1071       C  0.35877562  0.80575473  0.04604398     1.01200
O1072       O  0.33543011  0.80705198  0.05395882    -0.79300
O1073       O  0.31920894  0.76966624  0.02017175    -0.79500
C1074       C  0.30893208  0.75770282  0.49965104     1.01100
Cr1075     Cr  0.30446894  0.80267763  0.46971819     1.93700
Cr1076     Cr  0.34033357  0.84046380  0.00023224     1.93200
Cr1077     Cr  0.30424014  0.80301776  0.03087651     1.39100
O1078       O  0.31596180  0.81644753  0.00026650    -1.24500
O1079       O  0.27043651  0.69340572  0.01616777    -0.86800
O1080       O  0.29005776  0.65326939  0.04385218    -0.83800
C1081       C  0.30172340  0.63142499  0.04558524     0.96700
O1082       O  0.32330799  0.62706478  0.03235301    -0.83900
O1083       O  0.31751493  0.62281109  0.47643006    -0.86500
C1084       C  0.30641280  0.62898092  0.45451270     1.01200
O1085       O  0.30815697  0.65224772  0.44648408    -0.79300
O1086       O  0.27016641  0.66895850  0.48014440    -0.79500
C1087       C  0.25829979  0.67988201  0.49897132     1.01100
O1088       O  0.32112421  0.71833117  0.01892755    -0.86800
O1089       O  0.33788835  0.68089878  0.05283785    -0.83900
C1090       C  0.36091230  0.68155855  0.04376934     0.96700
O1091       O  0.36581137  0.66909759  0.02234845    -0.83900
O1092       O  0.36122324  0.66425240  0.46842483    -0.86500
C1093       C  0.35827696  0.68659221  0.45612076     1.01200
O1094       O  0.33657578  0.69868278  0.45662983    -0.79300
O1095       O  0.29576519  0.71851890  0.48338115    -0.79500
C1096       C  0.30932370  0.73044073  0.50031640     1.01100
Cr1097     Cr  0.30588959  0.68545089  0.03033212     1.93700
Cr1098     Cr  0.34084623  0.64646912  0.99993808     1.93200
Cr1099     Cr  0.30364008  0.68351007  0.46932754     1.39100
O1100       O  0.31711278  0.67130362  0.99985096    -1.24500
O1101       O  0.16957310  0.76970211  0.47968063    -0.86800
O1102       O  0.15192045  0.80752999  0.44624745    -0.83800
C1103       C  0.12855398  0.80668743  0.45420123     0.96700
O1104       O  0.12253322  0.81821874  0.47596771    -0.83900
O1105       O  0.12702674  0.82370995  0.03172956    -0.86500
C1106       C  0.13106668  0.80208429  0.04499604     1.01200
O1107       O  0.15285398  0.79031087  0.04359972    -0.79300
O1108       O  0.19291272  0.77020223  0.01646711    -0.79500
C1109       C  0.17996106  0.75841787  0.49913222     1.01100
O1110       O  0.21849822  0.79613700  0.48325242    -0.86800
O1111       O  0.19819238  0.83664343  0.45570716    -0.83900
C1112       C  0.18601077  0.85831789  0.45501805     0.96700
O1113       O  0.16398699  0.86140741  0.46777050    -0.83900
O1114       O  0.16973474  0.86569026  0.02245743    -0.86500
C1115       C  0.18185130  0.86080962  0.04411823     1.01200
O1116       O  0.18125202  0.83771122  0.05303944    -0.79300
O1117       O  0.21877246  0.82002760  0.01936545    -0.79500
C1118       C  0.23019355  0.80952799  0.50056895     1.01100
Cr1119     Cr  0.18343129  0.80355332  0.46888918     1.93700
Cr1120     Cr  0.14704318  0.84103137  0.99959180     1.93200
Cr1121     Cr  0.18537301  0.80562886  0.03039359     1.39100
O1122       O  0.17156820  0.81692222  0.99965654    -1.24500
O1123       O  0.21873562  0.66855514  0.48051188    -0.86800
O1124       O  0.18127420  0.65138240  0.44660780    -0.83800
C1125       C  0.18247718  0.62841324  0.45570243     0.96700
O1126       O  0.17049931  0.62342406  0.47734230    -0.83900
O1127       O  0.16421968  0.62785442  0.03182805    -0.86500
C1128       C  0.18598599  0.63103898  0.04477469     1.01200
O1129       O  0.19802804  0.65269541  0.04416155    -0.79300
O1130       O  0.21867511  0.69306364  0.01654338    -0.79500
C1131       C  0.23057181  0.67968617  0.49914457     1.01100
O1132       O  0.19306151  0.71868060  0.48292171    -0.86800
O1133       O  0.15279158  0.69871922  0.45542574    -0.83900
C1134       C  0.13097309  0.68703299  0.45501999     0.96700
O1135       O  0.12754893  0.66529355  0.46803913    -0.83900
O1136       O  0.12296934  0.67092474  0.02261377    -0.86500
C1137       C  0.12801516  0.68275978  0.04435515     1.01200
O1138       O  0.15113110  0.68205747  0.05318331    -0.79300
O1139       O  0.16922200  0.71952265  0.01949598    -0.79500
C1140       C  0.17991662  0.73093906  0.50012853     1.01100
Cr1141     Cr  0.18543015  0.68333304  0.46909028     1.93700
Cr1142     Cr  0.14737813  0.64783872  0.00005005     1.93200
Cr1143     Cr  0.18321459  0.68574254  0.03064504     1.39100
O1144       O  0.17161701  0.67199858  0.99995454    -1.24500
O1145       O  0.21878308  0.97422402  0.32525474    -0.86800
O1146       O  0.18064357  0.94142110  0.34206661    -0.83800
C1147       C  0.18255349  0.94947622  0.36528993     0.96700
O1148       O  0.17138447  0.97151392  0.37146259    -0.83900
O1149       O  0.16658141  0.52735133  0.36688443    -0.86500
C1150       C  0.18826644  0.54034916  0.36281605     1.01200
O1151       O  0.20018326  0.53829640  0.34112879    -0.79300
O1152       O  0.21922782  0.50994846  0.30075443    -0.79500
C1153       C  0.23075263  0.99296121  0.31450563     1.01100
O1154       O  0.19281066  0.97822599  0.27566058    -0.86800
O1155       O  0.15178470  0.95170725  0.29598796    -0.83900
C1156       C  0.13035282  0.95106013  0.30847706     0.96700
O1157       O  0.12746274  0.96422698  0.33030268    -0.83900
O1158       O  0.12399497  0.51937098  0.32461414    -0.86500
C1159       C  0.12979407  0.54067874  0.31206761     1.01200
O1160       O  0.15323563  0.54838849  0.31239063    -0.79300
O1161       O  0.16911950  0.51383802  0.27552962    -0.79500
C1162       C  0.17985620  0.99591301  0.26386562     1.01100
Cr1163     Cr  0.18502118  0.96415349  0.31080208     1.93700
Cr1164     Cr  0.14829663  0.99566317  0.34741776     1.93200
Cr1165     Cr  0.18438044  0.52491948  0.30856512     1.39100
O1166       O  0.17210656  0.99508166  0.32275042    -1.24500
O1167       O  0.19409947  0.97912151  0.22453384    -0.86800
O1168       O  0.15373164  0.95140181  0.20538518    -0.83800
C1169       C  0.13240973  0.94889452  0.19298957     0.96700
O1170       O  0.12887601  0.96112885  0.17068142    -0.83900
O1171       O  0.12365524  0.51546099  0.17598808    -0.86500
C1172       C  0.12834588  0.53737134  0.18776593     1.01200
O1173       O  0.15119465  0.54668908  0.18645655    -0.79300
O1174       O  0.16870001  0.51341815  0.22417250    -0.79500
C1175       C  0.18020780  0.99612111  0.23629587     1.01100
O1176       O  0.21942890  0.97532939  0.17457694    -0.86800
O1177       O  0.18213811  0.94110007  0.15845742    -0.83900
C1178       C  0.18297374  0.94883015  0.13498682     0.96700
O1179       O  0.17134740  0.97054443  0.12886008    -0.83900
O1180       O  0.16528340  0.52573988  0.13305129    -0.86500
C1181       C  0.18678586  0.53922467  0.13693992     1.01200
O1182       O  0.19882190  0.53761875  0.15850248    -0.79300
O1183       O  0.21924222  0.51091180  0.19875523    -0.79500
C1184       C  0.23119539  0.99413140  0.18547300     1.01100
Cr1185     Cr  0.18633823  0.96429024  0.18966511     1.93700
Cr1186     Cr  0.14819680  0.99368216  0.15325382     1.93200
Cr1187     Cr  0.18350530  0.52449985  0.19097708     1.39100
O1188       O  0.17237200  0.99443215  0.17752251    -1.24500
O1189       O  0.29579142  0.97799006  0.27573728    -0.86800
O1190       O  0.33631055  0.95043226  0.29529345    -0.83800
C1191       C  0.35809898  0.94887196  0.30702996     0.96700
O1192       O  0.36208086  0.96211743  0.32861560    -0.83900
O1193       O  0.36618935  0.51847937  0.32257741    -0.86500
C1194       C  0.35975696  0.54038316  0.31143534     1.01200
O1195       O  0.33635327  0.54820329  0.31306789    -0.79300
O1196       O  0.31962963  0.51445837  0.27547931    -0.79500
C1197       C  0.30899729  0.99540630  0.26384846     1.01100
O1198       O  0.27041714  0.97465131  0.32608983    -0.86800
O1199       O  0.30820059  0.94102759  0.34290163    -0.83900
C1200       C  0.30733181  0.95001872  0.36594375     0.96700
O1201       O  0.31963686  0.97153256  0.37093091    -0.83900
O1202       O  0.32527942  0.52667770  0.36631504    -0.86500
C1203       C  0.30296140  0.53905817  0.36367106     1.01200
O1204       O  0.29031658  0.53797790  0.34233538    -0.79300
O1205       O  0.27026356  0.51057829  0.30157107    -0.79500
C1206       C  0.25837331  0.99316457  0.31491879     1.01100
Cr1207     Cr  0.30371720  0.96369323  0.31103001     1.93700
Cr1208     Cr  0.34222488  0.99436216  0.34606782     1.93200
Cr1209     Cr  0.30521166  0.52515894  0.30911360     1.39100
O1210       O  0.31741734  0.99433879  0.32243169    -1.24500
O1211       O  0.32104350  0.51361464  0.22413600    -0.86800
O1212       O  0.33829615  0.54759239  0.18668465    -0.83800
C1213       C  0.36135763  0.53862413  0.18773178     0.96700
O1214       O  0.36655277  0.51699092  0.17565014    -0.83900
O1215       O  0.36200099  0.96261794  0.16987879    -0.86500
C1216       C  0.35886422  0.94962940  0.19165966     1.01200
O1217       O  0.33707135  0.94987290  0.20353379    -0.79300
O1218       O  0.29667162  0.97757940  0.22414956    -0.79500
C1219       C  0.30963718  0.99507032  0.23615295     1.01100
O1220       O  0.27108396  0.51104432  0.19852100    -0.86800
O1221       O  0.29118188  0.53866214  0.15807351    -0.83900
C1222       C  0.30287615  0.53910459  0.13620282     0.96700
O1223       O  0.32471113  0.52616253  0.13273640    -0.83900
O1224       O  0.31851462  0.97158010  0.12860834    -0.86500
C1225       C  0.30653561  0.94992206  0.13372662     1.01200
O1226       O  0.30778896  0.94090057  0.15671375    -0.79300
O1227       O  0.27065027  0.97507699  0.17445113    -0.79500
C1228       C  0.25891298  0.99392529  0.18550624     1.01100
Cr1229     Cr  0.30644269  0.52504266  0.19079802     1.93700
Cr1230     Cr  0.34173519  0.99426704  0.15286818     1.93200
Cr1231     Cr  0.30410419  0.96355463  0.18869979     1.39100
O1232       O  0.31770794  0.99430890  0.17724084    -1.24500
O1233       O  0.47776840  0.69357121  0.27573671    -0.86800
O1234       O  0.45034382  0.65312155  0.29605066    -0.83800
C1235       C  0.44960431  0.63161212  0.30841963     0.96700
O1236       O  0.46236200  0.62874412  0.33047851    -0.83900
O1237       O  0.01723450  0.62361843  0.32461121    -0.86500
C1238       C  0.03872478  0.62829749  0.31216275     1.01200
O1239       O  0.04781842  0.65129601  0.31286913    -0.79300
O1240       O  0.01380157  0.66828170  0.27584643    -0.79500
C1241       C  0.49494398  0.67989211  0.26402423     1.01100
O1242       O  0.47411936  0.71996001  0.32478967    -0.86800
O1243       O  0.44061670  0.68257345  0.34226119    -0.83900
C1244       C  0.44851966  0.68374125  0.36563159     0.96700
O1245       O  0.47047584  0.67240804  0.37167072    -0.83900
O1246       O  0.02694129  0.66623609  0.36701269    -0.86500
C1247       C  0.04029056  0.68774765  0.36277164     1.01200
O1248       O  0.03881364  0.69925586  0.34091685    -0.79300
O1249       O  0.01105137  0.71891122  0.30126853    -0.79500
C1250       C  0.49358077  0.73117573  0.31455163     1.01100
Cr1251     Cr  0.46341920  0.68625192  0.31080006     1.93700
Cr1252     Cr  0.49410426  0.64907894  0.34754508     1.93200
Cr1253     Cr  0.02519027  0.68343983  0.30875102     1.39100
O1254       O  0.49409621  0.67279901  0.32287072    -1.24500
O1255       O  0.47479275  0.71996065  0.17525725    -0.86800
O1256       O  0.44089223  0.68251961  0.15841781    -0.83800
C1257       C  0.44861269  0.68270050  0.13495830     0.96700
O1258       O  0.47034418  0.67074852  0.12918584    -0.83900
O1259       O  0.02654741  0.66548092  0.13340621    -0.86500
C1260       C  0.03953418  0.68732055  0.13717967     1.01200
O1261       O  0.03794838  0.69927333  0.15882422    -0.79300
O1262       O  0.01127446  0.71891226  0.19931694    -0.79500
C1263       C  0.49416643  0.73121391  0.18565839     1.01100
O1264       O  0.47825894  0.69395452  0.22473146    -0.86800
O1265       O  0.45072945  0.65362027  0.20507538    -0.83900
C1266       C  0.44897805  0.63198408  0.19303696     0.96700
O1267       O  0.46219223  0.62809252  0.17133427    -0.83900
O1268       O  0.01842049  0.62326772  0.17650120    -0.86500
C1269       C  0.04025186  0.62897009  0.18815836     1.01200
O1270       O  0.04818525  0.65231104  0.18710897    -0.79300
O1271       O  0.01421675  0.66866837  0.22453965    -0.79500
C1272       C  0.49527848  0.68015995  0.23652816     1.01100
Cr1273     Cr  0.46388019  0.68640157  0.18975193     1.93700
Cr1274     Cr  0.49433219  0.64807776  0.15379122     1.93200
Cr1275     Cr  0.02514365  0.68370163  0.19139650     1.39100
O1276       O  0.49435704  0.67249935  0.17790270    -1.24500
O1277       O  0.47490763  0.82047086  0.22453240    -0.86800
O1278       O  0.44083896  0.83665922  0.18684836    -0.83800
C1279       C  0.44882390  0.85993637  0.18806134     0.96700
O1280       O  0.47037293  0.86593717  0.17634537    -0.83900
O1281       O  0.02515379  0.86218581  0.17078696    -0.86500
C1282       C  0.03896412  0.85860427  0.19203891     1.01200
O1283       O  0.03916851  0.83659874  0.20352176    -0.79300
O1284       O  0.01159410  0.79660871  0.22454205    -0.79500
C1285       C  0.49376808  0.80962079  0.23641564     1.01100
O1286       O  0.47822979  0.77060784  0.19927991    -0.86800
O1287       O  0.45062712  0.78995962  0.15847797    -0.83900
C1288       C  0.44981052  0.80188194  0.13671617     0.96700
O1289       O  0.46244693  0.82388174  0.13340045    -0.83900
O1290       O  0.01705184  0.81924916  0.12886218    -0.86500
C1291       C  0.03871118  0.80700192  0.13366243     1.01200
O1292       O  0.04768198  0.80719202  0.15670783    -0.79300
O1293       O  0.01453214  0.76970993  0.17517000    -0.79500
C1294       C  0.49510497  0.75856179  0.18564833     1.01100
Cr1295     Cr  0.46389085  0.80549837  0.19124603     1.93700
Cr1296     Cr  0.49383182  0.84168996  0.15344321     1.93200
Cr1297     Cr  0.02549246  0.80359721  0.18894246     1.39100
O1298       O  0.49442260  0.81725204  0.17751087    -1.24500
O1299       O  0.01045861  0.79542617  0.27604816    -0.86800
O1300       O  0.03805026  0.83550698  0.29586277    -0.83800
C1301       C  0.04017606  0.85699671  0.30800919     0.96700
O1302       O  0.02748358  0.86080354  0.32995446    -0.83900
O1303       O  0.47346794  0.86654951  0.32355267    -0.86500
C1304       C  0.45146437  0.86167168  0.31224357     1.01200
O1305       O  0.44200473  0.83894231  0.31418798    -0.79300
O1306       O  0.47502489  0.82079516  0.27605069    -0.79500
C1307       C  0.49358611  0.80941246  0.26416215     1.01100
O1308       O  0.01357043  0.76952036  0.32566045    -0.86800
O1309       O  0.04713726  0.80718056  0.34349417    -0.83900
C1310       C  0.03815521  0.80669633  0.36658708     0.96700
O1311       O  0.01653854  0.81870606  0.37155934    -0.83900
O1312       O  0.46338757  0.82550005  0.36722886    -0.86500
C1313       C  0.45051679  0.80356732  0.36425650     1.01200
O1314       O  0.45071447  0.79163183  0.34253590    -0.79300
O1315       O  0.47722001  0.77095420  0.30200798    -0.79500
C1316       C  0.49447869  0.75857207  0.31498757     1.01100
Cr1317     Cr  0.02474076  0.80296934  0.31132994     1.93700
Cr1318     Cr  0.49544025  0.84197587  0.34692817     1.93200
Cr1319     Cr  0.46387536  0.80655501  0.30964533     1.39100
O1320       O  0.49485225  0.81736063  0.32304902    -1.24500
O1321       O  0.02012635  0.76123309  0.05118774    -0.86800
O1322       O  0.04001190  0.78878130  0.09117206    -0.83800
C1323       C  0.05213534  0.79054544  0.11269784     0.96700
O1324       O  0.07409357  0.77761304  0.11631332    -0.83900
O1325       O  0.06780899  0.72267535  0.12144214    -0.86500
C1326       C  0.05618065  0.70080327  0.11648406     1.01200
O1327       O  0.05747654  0.69166345  0.09351586    -0.79300
O1328       O  0.02001227  0.72563024  0.07622094    -0.79500
C1329       C  0.00820928  0.74415174  0.06477663     1.01100
O1330       O  0.07019983  0.76359106  0.02561135    -0.86800
O1331       O  0.08743008  0.79773532  0.06280349    -0.83900
C1332       C  0.11046029  0.78863055  0.06167635     0.96700
O1333       O  0.11555463  0.76683053  0.07348200    -0.83900
O1334       O  0.11077377  0.71195270  0.07995353    -0.86500
C1335       C  0.10716831  0.69916378  0.05797922     1.01200
O1336       O  0.08559059  0.70089106  0.04596389    -0.79300
O1337       O  0.04535665  0.72797268  0.02596714    -0.79500
C1338       C  0.05895422  0.74494459  0.01392035     1.01100
Cr1339     Cr  0.05544988  0.77526828  0.05868659     1.93700
Cr1340     Cr  0.09103682  0.74476190  0.09679064     1.93200
Cr1341     Cr  0.05309478  0.71412603  0.06143317     1.39100
O1342       O  0.06685181  0.74473207  0.07263777    -1.24500
O1343       O  0.06960062  0.51904460  0.27005745    -0.86800
O1344       O  0.08629698  0.55676747  0.30355504    -0.83800
C1345       C  0.10977109  0.55618604  0.29582212     0.96700
O1346       O  0.11558522  0.56778591  0.27396521    -0.83900
O1347       O  0.11122560  0.57261167  0.21771910    -0.86500
C1348       C  0.10756657  0.55073826  0.20466535     1.01200
O1349       O  0.08603612  0.53869122  0.20644152    -0.79300
O1350       O  0.04582934  0.51927074  0.23361770    -0.74700
C1351       C  0.05947259  0.50749099  0.25072544     1.01100
O1352       O  0.02001678  0.54508029  0.26602484    -0.86800
O1353       O  0.03955934  0.58580194  0.29332206    -0.83900
C1354       C  0.05176640  0.60730610  0.29513242     0.96700
O1355       O  0.07353482  0.61083203  0.28194855    -0.83900
O1356       O  0.06802694  0.61489034  0.22585965    -0.86500
C1357       C  0.05626319  0.60904566  0.20411048     1.01200
O1358       O  0.05731540  0.58563428  0.19621380    -0.79300
O1359       O  0.02016172  0.56950293  0.23012441    -0.79500
C1360       C  0.00829423  0.55882086  0.24892070     1.01100
Cr1361     Cr  0.05496081  0.55274005  0.28051577     1.93700
Cr1362     Cr  0.09101326  0.59041731  0.24983897     1.93200
Cr1363     Cr  0.05336902  0.55435710  0.21935206     1.39100
O1364       O  0.06690832  0.56612121  0.24992555    -1.24500
O1365       O  0.26355778  0.57066510  0.02607401    -0.86800
O1366       O  0.29727699  0.58799032  0.06368186    -0.83800
C1367       C  0.28825857  0.61103501  0.06253565     0.96700
O1368       O  0.26657105  0.61623454  0.07447044    -0.83900
O1369       O  0.21234049  0.61185703  0.08040950    -0.86500
C1370       C  0.19950545  0.60866067  0.05855924     1.01200
O1371       O  0.19993188  0.58688212  0.04665314    -0.79300
O1372       O  0.22750467  0.54643824  0.02610720    -0.79500
C1373       C  0.24515549  0.55925077  0.01416172     1.01100
O1374       O  0.26089402  0.52076004  0.05174413    -0.86800
O1375       O  0.28838918  0.54090458  0.09224076    -0.83900
C1376       C  0.28889781  0.55278488  0.11401783     0.96700
O1377       O  0.27579654  0.57454954  0.11740396    -0.83900
O1378       O  0.22148308  0.56847838  0.12166898    -0.86500
C1379       C  0.19988893  0.55646023  0.11649644     1.01200
O1380       O  0.19081251  0.55780761  0.09353642    -0.79300
O1381       O  0.22472793  0.52044726  0.07591592    -0.79500
C1382       C  0.24345141  0.50871019  0.06471162     1.01100
Cr1383     Cr  0.27484640  0.55609946  0.05946213     1.93700
Cr1384     Cr  0.24403025  0.59169742  0.09741797     1.93200
Cr1385     Cr  0.21341246  0.55394343  0.06157701     1.39100
O1386       O  0.24409353  0.56755126  0.07312779    -1.24500
O1387       O  0.46882357  0.72521235  0.07556004    -0.86800
O1388       O  0.43228779  0.69057050  0.09146503    -0.83800
C1389       C  0.43251225  0.69825067  0.11494100     0.96700
O1390       O  0.41996380  0.71958519  0.12084023    -0.83900
O1391       O  0.41448511  0.77481988  0.11741147    -0.86500
C1392       C  0.43618512  0.78804724  0.11435827     1.01200
O1393       O  0.44811178  0.78801328  0.09261198    -0.79300
O1394       O  0.46866118  0.76149072  0.05166250    -0.79500
C1395       C  0.48059338  0.74406010  0.06482359     1.01100
O1396       O  0.44345872  0.72891075  0.02553817    -0.86800
O1397       O  0.40322305  0.70059554  0.04478462    -0.83900
C1398       C  0.38159560  0.69858716  0.05681901     0.96700
O1399       O  0.37755202  0.71167212  0.07851494    -0.83900
O1400       O  0.37275890  0.76779305  0.07361262    -0.86500
C1401       C  0.37850665  0.78975891  0.06216274     1.01200
O1402       O  0.40170788  0.79793776  0.06366544    -0.79300
O1403       O  0.41889856  0.76489811  0.02578508    -0.79500
C1404       C  0.42999037  0.74626936  0.01381200     1.01100
Cr1405     Cr  0.43581935  0.71403137  0.06039811     1.93700
Cr1406     Cr  0.39722873  0.74359149  0.09642547     1.93200
Cr1407     Cr  0.43327582  0.77528970  0.05945972     1.39100
O1408       O  0.42172472  0.74428511  0.07245348    -1.24500
O1409       O  0.26091420  0.96875588  0.05133230    -0.86800
O1410       O  0.28776400  0.94864445  0.09161394    -0.83800
C1411       C  0.28945693  0.93662674  0.11318559     0.96700
O1412       O  0.27618671  0.91494898  0.11699598    -0.83900
O1413       O  0.22045628  0.92127082  0.12140838    -0.86500
C1414       C  0.19871542  0.93284028  0.11535169     1.01200
O1415       O  0.19076897  0.93169217  0.09196891    -0.79300
O1416       O  0.22470308  0.96907716  0.07545232    -0.79500
C1417       C  0.24352242  0.98081316  0.06456258     1.01100
O1418       O  0.26383294  0.91830752  0.02585764    -0.86800
O1419       O  0.29707687  0.90090659  0.06365922    -0.83900
C1420       C  0.28779771  0.87801732  0.06233207     0.96700
O1421       O  0.26595668  0.87322042  0.07410182    -0.83900
O1422       O  0.21093959  0.87831047  0.07976903    -0.86500
C1423       C  0.19852584  0.88170642  0.05750314     1.01200
O1424       O  0.20088411  0.90304496  0.04507207    -0.79300
O1425       O  0.22832916  0.94348907  0.02567587    -0.79500
C1426       C  0.24542060  0.92972800  0.01391549     1.01100
Cr1427     Cr  0.27477281  0.93314923  0.05910377     1.93700
Cr1428     Cr  0.24350335  0.89800927  0.09706590     1.93200
Cr1429     Cr  0.21373786  0.93581828  0.06061074     1.39100
O1430       O  0.24401400  0.92205705  0.07268061    -1.24500
O1431       O  0.46877345  0.54670091  0.26718803    -0.86800
O1432       O  0.44843501  0.58750741  0.29415694    -0.83800
C1433       C  0.43601592  0.60904840  0.29483037     0.96700
O1434       O  0.41390324  0.61185164  0.28210887    -0.83900
O1435       O  0.41959288  0.61618822  0.22771170    -0.86500
C1436       C  0.43202783  0.61124149  0.20623621     1.01200
O1437       O  0.43143221  0.58816012  0.19728925    -0.79300
O1438       O  0.46869331  0.57146799  0.23149827    -0.79500
C1439       C  0.48059632  0.55990184  0.24982418     1.01100
O1440       O  0.41938328  0.52078112  0.27044133    -0.86800
O1441       O  0.40217365  0.55862217  0.30384667    -0.83900
C1442       C  0.37899107  0.55670273  0.29563079     0.96700
O1443       O  0.37286461  0.56793589  0.27372807    -0.83900
O1444       O  0.37746677  0.57369332  0.21797470    -0.86500
C1445       C  0.38178730  0.55209020  0.20471925     1.01200
O1446       O  0.40362547  0.54042133  0.20645790    -0.79300
O1447       O  0.44369735  0.52103821  0.23434406    -0.79500
C1448       C  0.43030821  0.50905717  0.25154623     1.01100
Cr1449     Cr  0.43363169  0.55438587  0.28124479     1.93700
Cr1450     Cr  0.39692015  0.59130083  0.25036895     1.93200
Cr1451     Cr  0.43581849  0.55629610  0.22003645     1.39100
O1452       O  0.42172386  0.56761080  0.25053055    -1.24500
O1453       O  0.07050366  0.96903945  0.23131512    -0.86800
O1454       O  0.08862990  0.93159761  0.19733042    -0.83800
C1455       C  0.11162414  0.93229200  0.20637634     0.96700
O1456       O  0.11644822  0.92032574  0.22809260    -0.83900
O1457       O  0.11179689  0.91496517  0.28218486    -0.86500
C1458       C  0.10807992  0.93662441  0.29536979     1.01200
O1459       O  0.08591984  0.94785121  0.29546177    -0.79300
O1460       O  0.04614900  0.96823589  0.26747685    -0.79500
C1461       C  0.05974127  0.98028156  0.25058751     1.01100
O1462       O  0.02098703  0.94311803  0.23317690    -0.86800
O1463       O  0.04151755  0.90286355  0.20576113    -0.83900
C1464       C  0.05299615  0.88081043  0.20572316     0.96700
O1465       O  0.07460933  0.87723546  0.21900848    -0.83900
O1466       O  0.06906300  0.87282664  0.27320257    -0.86500
C1467       C  0.05677224  0.87773863  0.29471888     1.01200
O1468       O  0.05707090  0.90079202  0.30366134    -0.79300
O1469       O  0.01969950  0.91904145  0.26951060    -0.79500
C1470       C  0.00863910  0.92987206  0.25014079     1.01100
Cr1471     Cr  0.05645470  0.93556805  0.21966656     1.93700
Cr1472     Cr  0.09184283  0.89744148  0.25063073     1.93200
Cr1473     Cr  0.05330832  0.93288150  0.28128961     1.39100
O1474       O  0.06745728  0.92163232  0.25054910    -1.24500
O1475       O  0.06964505  0.76377709  0.47453069    -0.86800
O1476       O  0.08544334  0.79851100  0.43761532    -0.83800
C1477       C  0.10897338  0.79091425  0.43834246     0.96700
O1478       O  0.11530663  0.76947339  0.42640089    -0.83900
O1479       O  0.11197174  0.71452532  0.42002088    -0.86500
C1480       C  0.10870049  0.70090433  0.44142588     1.01200
O1481       O  0.08684991  0.70065389  0.45312715    -0.79300
O1482       O  0.04618293  0.72719329  0.47413752    -0.79500
C1483       C  0.05899465  0.74477904  0.48620574     1.01100
O1484       O  0.01976150  0.76019571  0.44933150    -0.86800
O1485       O  0.03902034  0.78793249  0.40877192    -0.83900
C1486       C  0.05144163  0.79035701  0.38742801     0.96700
O1487       O  0.07373668  0.77824780  0.38386524    -0.83900
O1488       O  0.06867170  0.72326501  0.37849841    -0.86500
C1489       C  0.05706312  0.70130860  0.38332615     1.01200
O1490       O  0.05837109  0.69198090  0.40616494    -0.79300
O1491       O  0.02004901  0.72478382  0.42418674    -0.79500
C1492       C  0.00801132  0.74326453  0.43553438     1.01100
Cr1493     Cr  0.05456344  0.77499897  0.44148794     1.93700
Cr1494     Cr  0.09129234  0.74615387  0.40327915     1.93200
Cr1495     Cr  0.05382926  0.71385388  0.43840772     1.39100
O1496       O  0.06697642  0.74497282  0.42744992    -1.24500
O1497       O  0.26118795  0.51999012  0.44831881    -0.86800
O1498       O  0.28852888  0.54010482  0.40767595    -0.83800
C1499       C  0.28951045  0.55265871  0.38628483     0.96700
O1500       O  0.27716126  0.57500496  0.38360656    -0.83900
O1501       O  0.22298418  0.56949429  0.37869725    -0.86500
C1502       C  0.20141149  0.55734256  0.38351596     1.01200
O1503       O  0.19220456  0.55832425  0.40647931    -0.79300
O1504       O  0.22549366  0.52036703  0.42359286    -0.79500
C1505       C  0.24380502  0.50828701  0.43502299     1.01100
O1506       O  0.26478380  0.56939912  0.47445549    -0.86800
O1507       O  0.29842947  0.58632647  0.43687177    -0.83900
C1508       C  0.29042299  0.60968676  0.43852117     0.96700
O1509       O  0.26857568  0.61600718  0.42727927    -0.83900
O1510       O  0.21281747  0.61186955  0.42092121    -0.86500
C1511       C  0.19952677  0.60783708  0.44247400     1.01200
O1512       O  0.20125528  0.58613411  0.45431383    -0.79300
O1513       O  0.22840459  0.54564058  0.47407918    -0.79500
C1514       C  0.24576666  0.55876681  0.48614702     1.01100
Cr1515     Cr  0.27561977  0.55502302  0.44083936     1.93700
Cr1516     Cr  0.24533036  0.59210019  0.40379827     1.93200
Cr1517     Cr  0.21446751  0.55362340  0.43861528     1.39100
O1518       O  0.24513519  0.56730596  0.42748089    -1.24500
O1519       O  0.22462486  0.96860400  0.42442145    -0.86800
O1520       O  0.19075829  0.93125960  0.40776280    -0.83800
C1521       C  0.19873507  0.93320397  0.38450597     0.96700
O1522       O  0.22064708  0.92188786  0.37823596    -0.83900
O1523       O  0.27665508  0.91540929  0.38240577    -0.86500
C1524       C  0.29024493  0.93676903  0.38658110     1.01200
O1525       O  0.28872441  0.94841371  0.40841757    -0.79300
O1526       O  0.26091361  0.96811109  0.44848232    -0.79500
C1527       C  0.24359179  0.98017903  0.43521142     1.01100
O1528       O  0.22802248  0.94287452  0.47397058    -0.86800
O1529       O  0.20076621  0.90221362  0.45396847    -0.83900
C1530       C  0.19979554  0.88077386  0.44148407     0.96700
O1531       O  0.21238882  0.87793563  0.41931612    -0.83900
O1532       O  0.26686091  0.87299511  0.42491053    -0.86500
C1533       C  0.28833854  0.87771928  0.43744094     1.01200
O1534       O  0.29751922  0.90065095  0.43660516    -0.79300
O1535       O  0.26361438  0.91782318  0.47390264    -0.79500
C1536       C  0.24523562  0.92936958  0.48579694     1.01100
Cr1537     Cr  0.21373790  0.93522168  0.43896279     1.93700
Cr1538     Cr  0.24419581  0.89816102  0.40216086     1.93200
Cr1539     Cr  0.27502427  0.93275892  0.44081024     1.39100
O1540       O  0.24434932  0.92175243  0.42692215    -1.24500
O1541       O  0.46921033  0.76091458  0.44860721    -0.86800
O1542       O  0.44897720  0.78911834  0.40838231    -0.83800
C1543       C  0.43701954  0.78967291  0.38663823     0.96700
O1544       O  0.41541079  0.77645202  0.38329318    -0.83900
O1545       O  0.42054816  0.72118235  0.37934670    -0.86500
C1546       C  0.43226779  0.69941834  0.38527179     1.01200
O1547       O  0.43098288  0.69131771  0.40854305    -0.79300
O1548       O  0.46877855  0.72445234  0.42489100    -0.79500
C1549       C  0.48085282  0.74313377  0.43556088     1.01100
O1550       O  0.41950682  0.76496024  0.47483133    -0.86800
O1551       O  0.40257748  0.79868692  0.43786614    -0.83900
C1552       C  0.37923025  0.79072533  0.43850785     0.96700
O1553       O  0.37343389  0.76924996  0.42630746    -0.83900
O1554       O  0.37742524  0.71391582  0.42119393    -0.86500
C1555       C  0.38065784  0.70068440  0.44288192     1.01200
O1556       O  0.40229167  0.70131428  0.45506039    -0.79300
O1557       O  0.44338737  0.72856557  0.47484053    -0.79500
C1558       C  0.43024673  0.74610064  0.48668836     1.01100
Cr1559     Cr  0.43403373  0.77566942  0.44135488     1.93700
Cr1560     Cr  0.39782222  0.74520281  0.40366490     1.93200
Cr1561     Cr  0.43531605  0.71420208  0.43980301     1.39100
O1562       O  0.42203074  0.74505516  0.42793054    -1.24500
O1563       O  0.41865225  0.96916455  0.26904582    -0.86800
O1564       O  0.40198092  0.93151874  0.30272450    -0.83800
C1565       C  0.37895486  0.93217333  0.29370406     0.96700
O1566       O  0.37415811  0.91999681  0.27211590    -0.83900
O1567       O  0.37883121  0.91415523  0.21790061    -0.86500
C1568       C  0.38143010  0.93634667  0.20543106     1.01200
O1569       O  0.40272863  0.94899095  0.20639834    -0.79300
O1570       O  0.44346929  0.96951530  0.23343640    -0.79500
C1571       C  0.43004069  0.98123899  0.25078592     1.01100
O1572       O  0.46926040  0.94379309  0.26637393    -0.86800
O1573       O  0.44980996  0.90376279  0.29352208    -0.83900
C1574       C  0.43812506  0.88204963  0.29523522     0.96700
O1575       O  0.41658075  0.87785270  0.28201945    -0.83900
O1576       O  0.42240439  0.87332229  0.22624242    -0.86500
C1577       C  0.43339257  0.87948184  0.20428831     1.01200
O1578       O  0.43215127  0.90288515  0.19641607    -0.79300
O1579       O  0.47012865  0.92037492  0.22961246    -0.79500
C1580       C  0.48138470  0.93038562  0.24923751     1.01100
Cr1581     Cr  0.43391557  0.93606520  0.28025854     1.93700
Cr1582     Cr  0.39921091  0.89736721  0.24963022     1.93200
Cr1583     Cr  0.43611645  0.93435435  0.21910030     1.39100
O1584       O  0.42289578  0.92212724  0.24965046    -1.24500
O1585       O  0.26895455  0.81936773  0.98036334    -0.86800
O1586       O  0.30651164  0.83578237  0.94665780    -0.83800
C1587       C  0.30607439  0.85930052  0.95432460     0.96700
O1588       O  0.31775153  0.86513046  0.97613868    -0.83900
O1589       O  0.31754887  0.86498960  0.52403602    -0.86500
C1590       C  0.30585080  0.85922960  0.54579568     1.01200
O1591       O  0.30677734  0.83584958  0.55377304    -0.79300
O1592       O  0.26950510  0.81974909  0.51978626    -0.79500
C1593       C  0.25746156  0.80913189  0.99964917     1.01100
O1594       O  0.29468824  0.76957794  0.98433441    -0.86800
O1595       O  0.33523252  0.78890265  0.95691021    -0.83900
C1596       C  0.35668921  0.80110332  0.95494198     0.96700
O1597       O  0.36039148  0.82287862  0.96806884    -0.83900
O1598       O  0.36041669  0.82254312  0.53274275    -0.86500
C1599       C  0.35661323  0.80068450  0.54583155     1.01200
O1600       O  0.33508497  0.78869451  0.54391220    -0.79300
O1601       O  0.29507058  0.76947939  0.51657723    -0.79500
C1602       C  0.30852521  0.75782429  0.00133564     1.01100
Cr1603     Cr  0.30241026  0.80450352  0.96977315     1.93700
Cr1604     Cr  0.34045588  0.84034924  0.50037315     1.93200
Cr1605     Cr  0.30260911  0.80452173  0.53080711     1.39100
O1606       O  0.31629098  0.81615574  0.50028533    -1.24500
O1607       O  0.27018772  0.69321129  0.51633052    -0.86800
O1608       O  0.29018855  0.65322217  0.54396209    -0.83800
C1609       C  0.30180236  0.63133626  0.54546319     0.96700
O1610       O  0.32329922  0.62702631  0.53210033    -0.83900
O1611       O  0.31758947  0.62239825  0.97663673    -0.86500
C1612       C  0.30640858  0.62853650  0.95473616     1.01200
O1613       O  0.30806459  0.65180275  0.94661685    -0.79300
O1614       O  0.27022108  0.66911479  0.98003338    -0.79500
C1615       C  0.25842787  0.68011609  0.99885782     1.01100
O1616       O  0.32014203  0.71903220  0.51939307    -0.86800
O1617       O  0.33778212  0.68134581  0.55294317    -0.83900
C1618       C  0.36090646  0.68139877  0.54405305     0.96700
O1619       O  0.36572210  0.66902834  0.52256810    -0.83900
O1620       O  0.36133978  0.66345211  0.96828129    -0.86500
C1621       C  0.35853094  0.68571702  0.95585095     1.01200
O1622       O  0.33696757  0.69806704  0.95647718    -0.79300
O1623       O  0.29624405  0.71848862  0.98336263    -0.79500
C1624       C  0.30950391  0.73029667  0.00069930     1.01100
Cr1625     Cr  0.30563381  0.68564933  0.53052805     1.93700
Cr1626     Cr  0.34075364  0.64678584  0.49988463     1.93200
Cr1627     Cr  0.30385450  0.68329531  0.96924018     1.39100
O1628       O  0.31703036  0.67166534  0.49996670    -1.24500
O1629       O  0.16934104  0.76958877  0.97980226    -0.86800
O1630       O  0.15199650  0.80747063  0.94629482    -0.83800
C1631       C  0.12864531  0.80663369  0.95426066     0.96700
O1632       O  0.12271032  0.81821270  0.97602681    -0.83900
O1633       O  0.12697649  0.82367714  0.53169151    -0.86500
C1634       C  0.13106963  0.80201401  0.54491138     1.01200
O1635       O  0.15289635  0.79030213  0.54346843    -0.79300
O1636       O  0.19311099  0.77056784  0.51635332    -0.79500
C1637       C  0.17970891  0.75818840  0.99918989     1.01100
O1638       O  0.21843453  0.79577901  0.98319954    -0.86800
O1639       O  0.19849000  0.83626675  0.95581780    -0.83900
C1640       C  0.18661280  0.85809985  0.95536281     0.96700
O1641       O  0.16457661  0.86132779  0.96808299    -0.83900
O1642       O  0.16965581  0.86583100  0.52208353    -0.86500
C1643       C  0.18182995  0.86092349  0.54370245     1.01200
O1644       O  0.18078580  0.83793928  0.55280259    -0.79300
O1645       O  0.21820283  0.82102826  0.51887638    -0.79500
C1646       C  0.23022625  0.80936050  0.00022828     1.01100
Cr1647     Cr  0.18344267  0.80332813  0.96899870     1.93700
Cr1648     Cr  0.14678715  0.84110594  0.49943445     1.93200
Cr1649     Cr  0.18521673  0.80598322  0.53017028     1.39100
O1650       O  0.17132501  0.81705308  0.49946524    -1.24500
O1651       O  0.21882201  0.66850810  0.98063855    -0.86800
O1652       O  0.18145930  0.65085730  0.94692314    -0.83800
C1653       C  0.18252107  0.62792312  0.95613315     0.96700
O1654       O  0.17042717  0.62305363  0.97773854    -0.83900
O1655       O  0.16415912  0.62779922  0.53140888    -0.86500
C1656       C  0.18585926  0.63097167  0.54445310     1.01200
O1657       O  0.19777048  0.65269988  0.54411265    -0.79300
O1658       O  0.21862200  0.69288836  0.51659054    -0.79500
C1659       C  0.23066886  0.67986089  0.99912929     1.01100
O1660       O  0.19274669  0.71849462  0.98279769    -0.86800
O1661       O  0.15274953  0.69818150  0.95528105    -0.83900
C1662       C  0.13087454  0.68661028  0.95506806     0.96700
O1663       O  0.12743756  0.66497001  0.96826232    -0.83900
O1664       O  0.12285987  0.67091060  0.52244268    -0.86500
C1665       C  0.12784654  0.68278239  0.54418542     1.01200
O1666       O  0.15096513  0.68227121  0.55301251    -0.79300
O1667       O  0.16940325  0.71976205  0.51951906    -0.79500
C1668       C  0.17961418  0.73071403  0.00005503     1.01100
Cr1669     Cr  0.18541994  0.68300984  0.96913042     1.93700
Cr1670     Cr  0.14737280  0.64801120  0.49976719     1.93200
Cr1671     Cr  0.18313138  0.68582824  0.53061091     1.39100
O1672       O  0.17156493  0.67221800  0.49985436    -1.24500
O1673       O  0.21897643  0.97417624  0.82532660    -0.86800
O1674       O  0.18119459  0.94107672  0.84230142    -0.83800
C1675       C  0.18299181  0.94919156  0.86551133     0.96700
O1676       O  0.17165754  0.97123114  0.87153126    -0.83900
O1677       O  0.16601606  0.52765693  0.86694781    -0.86500
C1678       C  0.18785638  0.54046066  0.86310265     1.01200
O1679       O  0.19983090  0.53852419  0.84145341    -0.79300
O1680       O  0.21900774  0.51061023  0.80096408    -0.79500
C1681       C  0.23083120  0.99291669  0.81445439     1.01100
O1682       O  0.19300652  0.97765274  0.77573099    -0.86800
O1683       O  0.15209649  0.95109967  0.79622077    -0.83900
C1684       C  0.13055255  0.95070554  0.80853406     0.96700
O1685       O  0.12759594  0.96400001  0.83027893    -0.83900
O1686       O  0.12364526  0.51979426  0.82439377    -0.86500
C1687       C  0.12951732  0.54118614  0.81206394     1.01200
O1688       O  0.15293463  0.54897378  0.81268500    -0.79300
O1689       O  0.16900761  0.51484005  0.77553659    -0.79500
C1690       C  0.17987635  0.99514349  0.76386131     1.01100
Cr1691     Cr  0.18529166  0.96380142  0.81095911     1.93700
Cr1692     Cr  0.14845680  0.99542422  0.84739575     1.93200
Cr1693     Cr  0.18412112  0.52556245  0.80874149     1.39100
O1694       O  0.17222936  0.99478545  0.82271831    -1.24500
O1695       O  0.19418867  0.97837458  0.72453127    -0.86800
O1696       O  0.15399626  0.95068680  0.70508913    -0.83800
C1697       C  0.13258801  0.94846279  0.69279374     0.96700
O1698       O  0.12902635  0.96086039  0.67057949    -0.83900
O1699       O  0.12330441  0.51628742  0.67593971    -0.86500
C1700       C  0.12807147  0.53818840  0.68767633     1.01200
O1701       O  0.15090235  0.54754494  0.68624487    -0.79300
O1702       O  0.16858329  0.51455267  0.72412300    -0.79500
C1703       C  0.18018500  0.99526443  0.73631386     1.01100
O1704       O  0.21963449  0.97501721  0.67459657    -0.86800
O1705       O  0.18269100  0.94061299  0.65821279    -0.83900
C1706       C  0.18342275  0.94840663  0.63475883     0.96700
O1707       O  0.17168673  0.97014931  0.62878737    -0.83900
O1708       O  0.16475001  0.52644633  0.63288159    -0.86500
C1709       C  0.18637361  0.53974777  0.63662630     1.01200
O1710       O  0.19843813  0.53821563  0.65816728    -0.79300
O1711       O  0.21894168  0.51168248  0.69840548    -0.79500
C1712       C  0.23129881  0.99384278  0.68555441     1.01100
Cr1713     Cr  0.18658711  0.96376174  0.68953471     1.93700
Cr1714     Cr  0.14846459  0.99337846  0.65323847     1.93200
Cr1715     Cr  0.18321888  0.52537585  0.69075701     1.39100
O1716       O  0.17256510  0.99398958  0.67754985    -1.24500
O1717       O  0.29590589  0.97794817  0.77570683    -0.86800
O1718       O  0.33631068  0.95055203  0.79547994    -0.83800
C1719       C  0.35812266  0.94904229  0.80714213     0.96700
O1720       O  0.36216335  0.96238881  0.82867701    -0.83900
O1721       O  0.36608148  0.51809751  0.82278246    -0.86500
C1722       C  0.35981784  0.54004293  0.81159506     1.01200
O1723       O  0.33645158  0.54798774  0.81315729    -0.79300
O1724       O  0.31947753  0.51450255  0.77553223    -0.79500
C1725       C  0.30905094  0.99537968  0.76373417     1.01100
O1726       O  0.27053190  0.97491109  0.82622139    -0.86800
O1727       O  0.30832543  0.94154496  0.84332949    -0.83900
C1728       C  0.30747137  0.95074833  0.86631036     0.96700
O1729       O  0.31979689  0.97225577  0.87110995    -0.83900
O1730       O  0.32504059  0.52609968  0.86651507    -0.86500
C1731       C  0.30287355  0.53873628  0.86384858     1.01200
O1732       O  0.29034869  0.53800000  0.84243391    -0.79300
O1733       O  0.27007048  0.51086227  0.80167525    -0.79500
C1734       C  0.25843379  0.99326324  0.81487167     1.01100
Cr1735     Cr  0.30378791  0.96388516  0.81119001     1.93700
Cr1736     Cr  0.34230062  0.99478489  0.84601263     1.93200
Cr1737     Cr  0.30514925  0.52516322  0.80919015     1.39100
O1738       O  0.31746575  0.99458612  0.82239150    -1.24500
O1739       O  0.32066481  0.51379427  0.72419175    -0.86800
O1740       O  0.33809249  0.54760421  0.68680204    -0.83800
C1741       C  0.36113056  0.53855522  0.68784888     0.96700
O1742       O  0.36621748  0.51687438  0.67577705    -0.83900
O1743       O  0.36205798  0.96257833  0.66957944    -0.86500
C1744       C  0.35884028  0.94954919  0.69131752     1.01200
O1745       O  0.33702948  0.94976908  0.70312998    -0.79300
O1746       O  0.29680109  0.97747228  0.72393013    -0.79500
C1747       C  0.30970343  0.99500610  0.73598249     1.01100
O1748       O  0.27071211  0.51130442  0.69852074    -0.86800
O1749       O  0.29092460  0.53878965  0.65808699    -0.83900
C1750       C  0.30259458  0.53905291  0.63620240     0.96700
O1751       O  0.32436186  0.52598670  0.63279383    -0.83900
O1752       O  0.31874563  0.97190574  0.62820925    -0.86500
C1753       C  0.30667039  0.95027958  0.63318619     1.01200
O1754       O  0.30782922  0.94112803  0.65614396    -0.79300
O1755       O  0.27076570  0.97519515  0.67408486    -0.79500
C1756       C  0.25899733  0.99387632  0.68535862     1.01100
Cr1757     Cr  0.30612428  0.52517306  0.69085146     1.93700
Cr1758     Cr  0.34192913  0.99435802  0.65270329     1.93200
Cr1759     Cr  0.30415420  0.96356539  0.68832413     1.39100
O1760       O  0.31781789  0.99431492  0.67700784    -1.24500
O1761       O  0.47803589  0.69325675  0.77580645    -0.86800
O1762       O  0.45072717  0.65269301  0.79604491    -0.83800
C1763       C  0.44987481  0.63123231  0.80848651     0.96700
O1764       O  0.46258978  0.62837978  0.83056841    -0.83900
O1765       O  0.01689248  0.62361844  0.82462544    -0.86500
C1766       C  0.03840956  0.62836038  0.81226908     1.01200
O1767       O  0.04749382  0.65134755  0.81309338    -0.79300
O1768       O  0.01346367  0.66822623  0.77590867    -0.79500
C1769       C  0.49539022  0.67975988  0.76413531     1.01100
O1770       O  0.47414736  0.71966562  0.82484284    -0.86800
O1771       O  0.44094831  0.68186409  0.84227239    -0.83900
C1772       C  0.44885561  0.68304832  0.86563508     0.96700
O1773       O  0.47080700  0.67185347  0.87174853    -0.83900
O1774       O  0.02668764  0.66616746  0.86704250    -0.86500
C1775       C  0.03998924  0.68771958  0.86284392     1.01200
O1776       O  0.03841992  0.69929514  0.84102094    -0.79300
O1777       O  0.01072700  0.71883403  0.80119287    -0.79500
C1778       C  0.49358332  0.73096609  0.81462266     1.01100
Cr1779     Cr  0.46363421  0.68585520  0.81083223     1.93700
Cr1780     Cr  0.49433375  0.64872037  0.84761988     1.93200
Cr1781     Cr  0.02484470  0.68342214  0.80882783     1.39100
O1782       O  0.49429217  0.67251376  0.82298441    -1.24500
O1783       O  0.47524246  0.71969732  0.67518211    -0.86800
O1784       O  0.44151405  0.68186223  0.65868707    -0.83800
C1785       C  0.44921837  0.68202263  0.63522421     0.96700
O1786       O  0.47096612  0.67020138  0.62941166    -0.83900
O1787       O  0.02629139  0.66555347  0.63357586    -0.86500
C1788       C  0.03926335  0.68742516  0.63724596     1.01200
O1789       O  0.03761824  0.69949640  0.65882399    -0.79300
O1790       O  0.01098998  0.71911879  0.69936243    -0.79500
C1791       C  0.49459093  0.73107977  0.68550024     1.01100
O1792       O  0.47892150  0.69402995  0.72482914    -0.86800
O1793       O  0.45136542  0.65346576  0.70553632    -0.83900
C1794       C  0.44938961  0.63187793  0.69343263     0.96700
O1795       O  0.46261629  0.62792664  0.67174102    -0.83900
O1796       O  0.01807641  0.62352381  0.67680838    -0.86500
C1797       C  0.03995581  0.62928270  0.68832888     1.01200
O1798       O  0.04791441  0.65259885  0.68709694    -0.79300
O1799       O  0.01401356  0.66891575  0.72459521    -0.79500
C1800       C  0.49593760  0.68024365  0.73664448     1.01100
Cr1801     Cr  0.46444315  0.68619460  0.68995587     1.93700
Cr1802     Cr  0.49484900  0.64775815  0.65412715     1.93200
Cr1803     Cr  0.02487753  0.68395176  0.69144216     1.39100
O1804       O  0.49489704  0.67232263  0.67809974    -1.24500
O1805       O  0.47521195  0.82025479  0.72457545    -0.86800
O1806       O  0.44080676  0.83637597  0.68731785    -0.83800
C1807       C  0.44868365  0.85971333  0.68819345     0.96700
O1808       O  0.47014719  0.86568849  0.67630372    -0.83900
O1809       O  0.02524654  0.86209056  0.67060501    -0.86500
C1810       C  0.03897051  0.85851804  0.69192035     1.01200
O1811       O  0.03905476  0.83654408  0.70346145    -0.79300
O1812       O  0.01147744  0.79650863  0.72438454    -0.79500
C1813       C  0.49405500  0.80937034  0.73642218     1.01100
O1814       O  0.47850543  0.77036278  0.69922781    -0.86800
O1815       O  0.45041779  0.78966890  0.65885019    -0.83900
C1816       C  0.44946667  0.80152445  0.63707353     0.96700
O1817       O  0.46220251  0.82345330  0.63357810    -0.83900
O1818       O  0.01698823  0.81913990  0.62873207    -0.86500
C1819       C  0.03867237  0.80695415  0.63356470     1.01200
O1820       O  0.04763566  0.80724135  0.65661058    -0.79300
O1821       O  0.01437593  0.76976988  0.67495016    -0.79500
C1822       C  0.49538304  0.75842653  0.68548894     1.01100
Cr1823     Cr  0.46397459  0.80523702  0.69144732     1.93700
Cr1824     Cr  0.49364314  0.84142896  0.65345937     1.93200
Cr1825     Cr  0.02538587  0.80358743  0.68880449     1.39100
O1826       O  0.49439991  0.81705873  0.67756092    -1.24500
O1827       O  0.01057751  0.79550316  0.77593690    -0.86800
O1828       O  0.03828444  0.83541306  0.79594509    -0.83800
C1829       C  0.04029763  0.85696042  0.80801328     0.96700
O1830       O  0.02755399  0.86080581  0.82992243    -0.83900
O1831       O  0.47299742  0.86634800  0.82347156    -0.86500
C1832       C  0.45111724  0.86148372  0.81193870     1.01200
O1833       O  0.44171874  0.83869933  0.81359192    -0.79300
O1834       O  0.47522525  0.82062233  0.77591282    -0.79500
C1835       C  0.49382605  0.80920264  0.76413825     1.01100
O1836       O  0.01349655  0.76942378  0.82553500    -0.86800
O1837       O  0.04716432  0.80693128  0.84352526    -0.83900
C1838       C  0.03817410  0.80656370  0.86661831     0.96700
O1839       O  0.01660332  0.81867789  0.87155222    -0.83900
O1840       O  0.46266890  0.82507746  0.86693391    -0.86500
C1841       C  0.44968962  0.80320838  0.86375711     1.01200
O1842       O  0.45008652  0.79134727  0.84200443    -0.79300
O1843       O  0.47721563  0.77071958  0.80187550    -0.79500
C1844       C  0.49441465  0.75839690  0.81500558     1.01100
Cr1845     Cr  0.02481859  0.80288387  0.81129997     1.93700
Cr1846     Cr  0.49487620  0.84177135  0.84690386     1.93200
Cr1847     Cr  0.46370122  0.80632639  0.80931439     1.39100
O1848       O  0.49454152  0.81718788  0.82300026    -1.24500
O1849       O  0.02002945  0.76126810  0.55114270    -0.86800
O1850       O  0.04001349  0.78874253  0.59109971    -0.83800
C1851       C  0.05211990  0.79048040  0.61263324     0.96700
O1852       O  0.07406729  0.77752952  0.61626029    -0.83900
O1853       O  0.06770321  0.72262297  0.62141426    -0.86500
C1854       C  0.05596103  0.70079983  0.61650297     1.01200
O1855       O  0.05717166  0.69163370  0.59353823    -0.79300
O1856       O  0.01986878  0.72574880  0.57627330    -0.79500
C1857       C  0.00808404  0.74424411  0.56478137     1.01100
O1858       O  0.07013782  0.76348526  0.52556656    -0.86800
O1859       O  0.08744073  0.79761878  0.56273043    -0.83900
C1860       C  0.11046694  0.78850501  0.56158828     0.96700
O1861       O  0.11553546  0.76668757  0.57338005    -0.83900
O1862       O  0.11059383  0.71184451  0.57982894    -0.86500
C1863       C  0.10693685  0.69904485  0.55787072     1.01200
O1864       O  0.08530311  0.70068917  0.54593716    -0.79300
O1865       O  0.04517496  0.72795023  0.52591104    -0.79500
C1866       C  0.05882704  0.74489146  0.51386169     1.01100
Cr1867     Cr  0.05541234  0.77520795  0.55862601     1.93700
Cr1868     Cr  0.09095447  0.74465768  0.59671578     1.93200
Cr1869     Cr  0.05286863  0.71408791  0.56142561     1.39100
O1870       O  0.06674863  0.74465742  0.57258479    -1.24500
O1871       O  0.06953090  0.51935615  0.76999441    -0.86800
O1872       O  0.08608678  0.55722032  0.80350038    -0.83800
C1873       C  0.10956647  0.55668103  0.79579403     0.96700
O1874       O  0.11540550  0.56826499  0.77394591    -0.83900
O1875       O  0.11098400  0.57330083  0.71772707    -0.86500
C1876       C  0.10737238  0.55143095  0.70467657     1.01200
O1877       O  0.08593324  0.53924631  0.70653103    -0.79300
O1878       O  0.04576191  0.51962845  0.73354681    -0.74700
C1879       C  0.05936474  0.50781876  0.75066637     1.01100
O1880       O  0.01988741  0.54527085  0.76595237    -0.86800
O1881       O  0.03927951  0.58599713  0.79325314    -0.83900
C1882       C  0.05148104  0.60748473  0.79519522     0.96700
O1883       O  0.07328009  0.61109241  0.78210319    -0.83900
O1884       O  0.06769410  0.61532433  0.72605317    -0.86500
C1885       C  0.05600727  0.60944945  0.70427873     1.01200
O1886       O  0.05719498  0.58606993  0.69632930    -0.79300
O1887       O  0.01996855  0.56980658  0.73013269    -0.79500
C1888       C  0.00813121  0.55907337  0.74892159     1.01100
Cr1889     Cr  0.05479480  0.55301912  0.78047334     1.93700
Cr1890     Cr  0.09076829  0.59087918  0.74992207     1.93200
Cr1891     Cr  0.05323319  0.55476264  0.71937281     1.39100
O1892       O  0.06673455  0.56649732  0.74994611    -1.24500
O1893       O  0.26382121  0.57040440  0.52582284    -0.86800
O1894       O  0.29732820  0.58781117  0.56348482    -0.83800
C1895       C  0.28831078  0.61086698  0.56231067     0.96700
O1896       O  0.26658776  0.61606820  0.57416751    -0.83900
O1897       O  0.21232131  0.61177271  0.57994717    -0.86500
C1898       C  0.19946299  0.60856516  0.55812014     1.01200
O1899       O  0.19995693  0.58679753  0.54617462    -0.79300
O1900       O  0.22769154  0.54630360  0.52575973    -0.79500
C1901       C  0.24529866  0.55923293  0.51387752     1.01100
O1902       O  0.26096658  0.52047137  0.55155766    -0.86800
O1903       O  0.28825502  0.54075259  0.59218106    -0.83900
C1904       C  0.28868211  0.55268153  0.61393507     0.96700
O1905       O  0.27559342  0.57447059  0.61721213    -0.83900
O1906       O  0.22124186  0.56860417  0.62124549    -0.86500
C1907       C  0.19962766  0.55664860  0.61605705     1.01200
O1908       O  0.19069788  0.55772275  0.59302376    -0.79300
O1909       O  0.22470528  0.52036067  0.57557449    -0.79500
C1910       C  0.24348064  0.50851387  0.56456026     1.01100
Cr1911     Cr  0.27489539  0.55588076  0.55928815     1.93700
Cr1912     Cr  0.24394046  0.59162655  0.59705154     1.93200
Cr1913     Cr  0.21343517  0.55383655  0.56115184     1.39100
O1914       O  0.24408050  0.56742230  0.57280263    -1.24500
O1915       O  0.46883977  0.72512150  0.57590562    -0.86800
O1916       O  0.43262123  0.68993687  0.59182711    -0.83800
C1917       C  0.43311382  0.69753867  0.61534436     0.96700
O1918       O  0.42072819  0.71883565  0.62147680    -0.83900
O1919       O  0.41431498  0.77384666  0.61820294    -0.86500
C1920       C  0.43563176  0.78763260  0.61487337     1.01200
O1921       O  0.44710961  0.78810238  0.59292995    -0.79300
O1922       O  0.46812002  0.76172835  0.55235415    -0.79500
C1923       C  0.48032881  0.74422077  0.56524788     1.01100
O1924       O  0.44355527  0.72867035  0.52604005    -0.86800
O1925       O  0.40336593  0.70013112  0.54517026    -0.83900
C1926       C  0.38187470  0.69778757  0.55739578     0.96700
O1927       O  0.37815920  0.71013774  0.57955195    -0.83900
O1928       O  0.37259286  0.76524675  0.57456881    -0.86500
C1929       C  0.37723293  0.78727288  0.56291650     1.01200
O1930       O  0.39995640  0.79674615  0.56446859    -0.79300
O1931       O  0.41817966  0.76406979  0.52634053    -0.79500
C1932       C  0.42992863  0.74587689  0.51430433     1.01100
Cr1933     Cr  0.43596292  0.71359165  0.56081008     1.93700
Cr1934     Cr  0.39748499  0.74225352  0.59734868     1.93200
Cr1935     Cr  0.43234032  0.77489330  0.56001669     1.39100
O1936       O  0.42164455  0.74358429  0.57312399    -1.24500
O1937       O  0.26038486  0.96922250  0.55059669    -0.86800
O1938       O  0.28746326  0.94949918  0.59115701    -0.83800
C1939       C  0.28959272  0.93714140  0.61253738     0.96700
O1940       O  0.27675295  0.91517424  0.61612049    -0.83900
O1941       O  0.22084511  0.92062038  0.62068386    -0.86500
C1942       C  0.19909262  0.93241679  0.61489662     1.01200
O1943       O  0.19102559  0.93156990  0.59155642    -0.79300
O1944       O  0.22452879  0.96912285  0.57507783    -0.79500
C1945       C  0.24319603  0.98105139  0.56420094     1.01100
O1946       O  0.26416824  0.91894590  0.52523761    -0.86800
O1947       O  0.29783115  0.90252335  0.56271153    -0.83900
C1948       C  0.28990536  0.87914259  0.56160822     0.96700
O1949       O  0.26808648  0.87329974  0.57313540    -0.83900
O1950       O  0.21206317  0.87784271  0.57866229    -0.86500
C1951       C  0.19896447  0.88158421  0.55683647     1.01200
O1952       O  0.20093356  0.90307765  0.54461645    -0.79300
O1953       O  0.22821346  0.94349861  0.52506598    -0.79500
C1954       C  0.24544202  0.92985190  0.51332918     1.01100
Cr1955     Cr  0.27479640  0.93398538  0.55843994     1.93700
Cr1956     Cr  0.24442603  0.89780714  0.59607420     1.93200
Cr1957     Cr  0.21381967  0.93580267  0.56013109     1.39100
O1958       O  0.24433148  0.92216002  0.57193245    -1.24500
O1959       O  0.46895850  0.54663191  0.76685694    -0.86800
O1960       O  0.44862375  0.58716476  0.79419141    -0.83800
C1961       C  0.43621644  0.60870366  0.79494475     0.96700
O1962       O  0.41406952  0.61155148  0.78229975    -0.83900
O1963       O  0.41971133  0.61613650  0.72796440    -0.86500
C1964       C  0.43214081  0.61124327  0.70646927     1.01200
O1965       O  0.43125546  0.58824769  0.69733524    -0.79300
O1966       O  0.46878018  0.57144707  0.73119629    -0.79500
C1967       C  0.48073198  0.55994623  0.74953283     1.01100
O1968       O  0.41956121  0.52063901  0.77016921    -0.86800
O1969       O  0.40240504  0.55803406  0.80388502    -0.83900
C1970       C  0.37916348  0.55628535  0.79575701     0.96700
O1971       O  0.37301540  0.56766856  0.77392126    -0.83900
O1972       O  0.37741738  0.57360897  0.71812067    -0.86500
C1973       C  0.38167001  0.55202664  0.70478812     1.01200
O1974       O  0.40354342  0.54039373  0.70639244    -0.79300
O1975       O  0.44380906  0.52099324  0.73404230    -0.79500
C1976       C  0.43034526  0.50899053  0.75117048     1.01100
Cr1977     Cr  0.43383476  0.55411712  0.78111738     1.93700
Cr1978     Cr  0.39700747  0.59113155  0.75053623     1.93200
Cr1979     Cr  0.43581241  0.55628430  0.71988699     1.39100
O1980       O  0.42182490  0.56746762  0.75050547    -1.24500
O1981       O  0.07062665  0.96898362  0.73103044    -0.86800
O1982       O  0.08873900  0.93136133  0.69718162    -0.83800
C1983       C  0.11173681  0.93200194  0.70622689     0.96700
O1984       O  0.11652954  0.92009743  0.72798126    -0.83900
O1985       O  0.11187216  0.91474236  0.78211466    -0.86500
C1986       C  0.10823873  0.93642036  0.79528947     1.01200
O1987       O  0.08614284  0.94778208  0.79526499    -0.79300
O1988       O  0.04637099  0.96822388  0.76726870    -0.79500
C1989       C  0.05983820  0.98025512  0.75027721     1.01100
O1990       O  0.02109995  0.94314256  0.73298085    -0.86800
O1991       O  0.04155436  0.90276060  0.70566889    -0.83900
C1992       C  0.05302532  0.88070615  0.70560821     0.96700
O1993       O  0.07464105  0.87711670  0.71888526    -0.83900
O1994       O  0.06906142  0.87276510  0.77310949    -0.86500
C1995       C  0.05681740  0.87771724  0.79464194     1.01200
O1996       O  0.05710817  0.90079732  0.80353357    -0.79300
O1997       O  0.01975592  0.91921024  0.76941830    -0.79500
C1998       C  0.00870863  0.93009036  0.75006462     1.01100
Cr1999     Cr  0.05655787  0.93546707  0.71949155     1.93700
Cr2000     Cr  0.09188178  0.89730166  0.75052323     1.93200
Cr2001     Cr  0.05345425  0.93289606  0.78112871     1.39100
O2002       O  0.06754651  0.92156029  0.75040100    -1.24500
O2003       O  0.06969311  0.76377408  0.97457200    -0.86800
O2004       O  0.08547804  0.79843121  0.93764361    -0.83800
C2005       C  0.10900698  0.79080608  0.93843029     0.96700
O2006       O  0.11529334  0.76930063  0.92655212    -0.83900
O2007       O  0.11186801  0.71426525  0.92012988    -0.86500
C2008       C  0.10858620  0.70057259  0.94149765     1.01200
O2009       O  0.08674080  0.70038349  0.95321192    -0.79300
O2010       O  0.04624876  0.72717092  0.97427388    -0.79500
C2011       C  0.05908781  0.74478331  0.98628141     1.01100
O2012       O  0.01969903  0.76017953  0.94951260    -0.86800
O2013       O  0.03896602  0.78783089  0.90884216    -0.83900
C2014       C  0.05141430  0.79023434  0.88750931     0.96700
O2015       O  0.07371076  0.77810768  0.88399081    -0.83900
O2016       O  0.06852428  0.72313518  0.87861269    -0.86500
C2017       C  0.05681697  0.70122195  0.88342198     1.01200
O2018       O  0.05807969  0.69187760  0.90626340    -0.79300
O2019       O  0.01993913  0.72474009  0.92441609    -0.79500
C2020       C  0.00791341  0.74320883  0.93578174     1.01100
Cr2021     Cr  0.05454533  0.77493480  0.94156508     1.93700
Cr2022     Cr  0.09122323  0.74597784  0.90340710     1.93200
Cr2023     Cr  0.05372636  0.71374870  0.93855023     1.39100
O2024       O  0.06690867  0.74485058  0.92756693    -1.24500
O2025       O  0.26136010  0.51935931  0.94855370    -0.86800
O2026       O  0.28855095  0.53966062  0.90788250    -0.83800
C2027       C  0.28943572  0.55225147  0.88651015     0.96700
O2028       O  0.27702630  0.57457092  0.88389394    -0.83900
O2029       O  0.22278893  0.56915523  0.87915551    -0.86500
C2030       C  0.20117178  0.55708333  0.88396355     1.01200
O2031       O  0.19210867  0.55779132  0.90699342    -0.79300
O2032       O  0.22564318  0.51992176  0.92386724    -0.79500
C2033       C  0.24400073  0.50775286  0.93514349     1.01100
O2034       O  0.26496170  0.56879317  0.97475935    -0.86800
O2035       O  0.29846016  0.58583503  0.93716926    -0.83900
C2036       C  0.29042333  0.60918851  0.93882486     0.96700
O2037       O  0.26855047  0.61548533  0.92763718    -0.83900
O2038       O  0.21281767  0.61131666  0.92144183    -0.86500
C2039       C  0.19953449  0.60727216  0.94298788     1.01200
O2040       O  0.20126679  0.58555684  0.95482982    -0.79300
O2041       O  0.22861072  0.54501408  0.97442670    -0.79500
C2042       C  0.24586034  0.55832469  0.98644948     1.01100
Cr2043     Cr  0.27570891  0.55447652  0.94110956     1.93700
Cr2044     Cr  0.24526225  0.59161900  0.90421145     1.93200
Cr2045     Cr  0.21453545  0.55306736  0.93903661     1.39100
O2046       O  0.24516178  0.56678497  0.92785176    -1.24500
O2047       O  0.22422307  0.96887871  0.92496333    -0.86800
O2048       O  0.19108364  0.93116407  0.90815081    -0.83800
C2049       C  0.19917335  0.93294298  0.88492785     0.96700
O2050       O  0.22114422  0.92151738  0.87887476    -0.83900
O2051       O  0.27731309  0.91603645  0.88313051    -0.86500
C2052       C  0.29041716  0.93770762  0.88708113     1.01200
O2053       O  0.28842536  0.94972687  0.90872689    -0.79300
O2054       O  0.26030421  0.96894205  0.94917760    -0.79500
C2055       C  0.24304509  0.98072784  0.93566126     1.01100
O2056       O  0.22794406  0.94292838  0.97458491    -0.86800
O2057       O  0.20112047  0.90208825  0.95431407    -0.83900
C2058       C  0.20068883  0.88051210  0.94203259     0.96700
O2059       O  0.21392100  0.87753100  0.92025553    -0.83900
O2060       O  0.26926519  0.87357193  0.92560825    -0.86500
C2061       C  0.29063061  0.87933949  0.93804035     1.01200
O2062       O  0.29845689  0.90275774  0.93753622    -0.79300
O2063       O  0.26419928  0.91884299  0.97448664    -0.79500
C2064       C  0.24542181  0.92970048  0.98637203     1.01100
Cr2065     Cr  0.21387832  0.93524388  0.93944435     1.93700
Cr2066     Cr  0.24532514  0.89829114  0.90298908     1.93200
Cr2067     Cr  0.27513926  0.93402013  0.94138778     1.39100
O2068       O  0.24479744  0.92213788  0.92758510    -1.24500
O2069       O  0.46834907  0.76153116  0.94803950    -0.86800
O2070       O  0.44759043  0.78917970  0.90793263    -0.83800
C2071       C  0.43599610  0.78922298  0.88602675     0.96700
O2072       O  0.41471067  0.77547020  0.88253886    -0.83900
O2073       O  0.42103003  0.72039158  0.87889397    -0.86500
C2074       C  0.43266174  0.69872484  0.88510186     1.01200
O2075       O  0.43126673  0.69078971  0.90844186    -0.79300
O2076       O  0.46854528  0.72472636  0.92469586    -0.79500
C2077       C  0.48032004  0.74362469  0.93536583     1.01100
O2078       O  0.41834380  0.76449147  0.97423605    -0.86800
O2079       O  0.40027453  0.79750307  0.93671509    -0.83900
C2080       C  0.37744907  0.78810132  0.93779590     0.96700
O2081       O  0.37277177  0.76643990  0.92560222    -0.83900
O2082       O  0.37793452  0.71199112  0.92029554    -0.86500
C2083       C  0.38096967  0.69952053  0.94244536     1.01200
O2084       O  0.40239660  0.70085408  0.95492279    -0.79300
O2085       O  0.44317047  0.72873935  0.97443170    -0.79500
C2086       C  0.42977932  0.74610965  0.98620926     1.01100
Cr2087     Cr  0.43268013  0.77546136  0.94072439     1.93700
Cr2088     Cr  0.39771157  0.74373033  0.90289387     1.93200
Cr2089     Cr  0.43529903  0.71395860  0.93958130     1.39100
O2090       O  0.42163458  0.74441970  0.92735502    -1.24500
O2091       O  0.41844426  0.96922265  0.76914556    -0.86800
O2092       O  0.40188594  0.93133725  0.80273615    -0.83800
C2093       C  0.37886937  0.93224330  0.79373223     0.96700
O2094       O  0.37399267  0.92021717  0.77206360    -0.83900
O2095       O  0.37861884  0.91420373  0.71777737    -0.86500
C2096       C  0.38132635  0.93628471  0.70516029     1.01200
O2097       O  0.40263601  0.94888906  0.70609747    -0.79300
O2098       O  0.44305320  0.96965538  0.73336070    -0.79500
C2099       C  0.42976270  0.98135068  0.75086067     1.01100
O2100       O  0.46900011  0.94399459  0.76631953    -0.86800
O2101       O  0.44966155  0.90362655  0.79323559    -0.83900
C2102       C  0.43785973  0.88196690  0.79499762     0.96700
O2103       O  0.41623628  0.87790084  0.78188653    -0.83900
O2104       O  0.42203776  0.87331277  0.72615074    -0.86500
C2105       C  0.43324609  0.87939203  0.70428140     1.01200
O2106       O  0.43227363  0.90281196  0.69639206    -0.79300
O2107       O  0.46996430  0.92055060  0.72960432    -0.79500
C2108       C  0.48117233  0.93065276  0.74918787     1.01100
Cr2109     Cr  0.43373223  0.93603668  0.78018556     1.93700
Cr2110     Cr  0.39893451  0.89746029  0.74952669     1.93200
Cr2111     Cr  0.43596370  0.93439180  0.71900725     1.39100
O2112       O  0.42268586  0.92217091  0.74953801    -1.24500
O2113       O  0.76894064  0.31936848  0.48067740    -0.86800
O2114       O  0.80635966  0.33575957  0.44681403    -0.83800
C2115       C  0.80609172  0.35929187  0.45443165     0.96700
O2116       O  0.81779312  0.36509490  0.47623445    -0.83900
O2117       O  0.81769537  0.36505947  0.02400925    -0.86500
C2118       C  0.80602575  0.35932591  0.04578321     1.01200
O2119       O  0.80687320  0.33595636  0.05378008    -0.79300
O2120       O  0.76950797  0.31983695  0.01986426    -0.79500
C2121       C  0.75747408  0.30905127  0.49993242     1.01100
O2122       O  0.79467271  0.26954548  0.48449430    -0.86800
O2123       O  0.83509712  0.28887338  0.45690786    -0.83900
C2124       C  0.85659431  0.30100817  0.45495574     0.96700
O2125       O  0.86036669  0.32274145  0.46816108    -0.83900
O2126       O  0.86042859  0.32256150  0.03279874    -0.86500
C2127       C  0.85657223  0.30074225  0.04594568     1.01200
O2128       O  0.83503673  0.28877888  0.04404193    -0.79300
O2129       O  0.79509567  0.26954095  0.01671364    -0.79500
C2130       C  0.80853404  0.25778094  0.50147006     1.01100
Cr2131     Cr  0.80233083  0.30448240  0.46993638     1.93700
Cr2132     Cr  0.84050289  0.34034686  0.00038467     1.93200
Cr2133     Cr  0.80261044  0.30461091  0.03090333     1.39100
O2134       O  0.81629215  0.31620496  0.00037278    -1.24500
O2135       O  0.77015154  0.19333911  0.01633748    -0.86800
O2136       O  0.79004001  0.15334271  0.04400878    -0.83800
C2137       C  0.80170042  0.13148982  0.04559480     0.96700
O2138       O  0.82321811  0.12718780  0.03226080    -0.83900
O2139       O  0.81746926  0.12245896  0.47665584    -0.86500
C2140       C  0.80640412  0.12867963  0.45472346     1.01200
O2141       O  0.80818521  0.15194573  0.44664485    -0.79300
O2142       O  0.77023206  0.16907539  0.48002932    -0.79500
C2143       C  0.75842139  0.18001374  0.49887409     1.01100
O2144       O  0.82012286  0.21908656  0.01945722    -0.86800
O2145       O  0.83768202  0.18137906  0.05302063    -0.83900
C2146       C  0.86081096  0.18144267  0.04413841     0.96700
O2147       O  0.86563061  0.16912169  0.02262574    -0.83900
O2148       O  0.86118847  0.16339312  0.46822486    -0.86500
C2149       C  0.85841675  0.18569735  0.45586490     1.01200
O2150       O  0.83694077  0.19818519  0.45668177    -0.79300
O2151       O  0.79613117  0.21847601  0.48354831    -0.79500
C2152       C  0.80942545  0.23025979  0.50086922     1.01100
Cr2153     Cr  0.80555414  0.18574179  0.03058353     1.93700
Cr2154     Cr  0.84065251  0.14686537  0.99998088     1.93200
Cr2155     Cr  0.80384185  0.18335016  0.46933919     1.39100
O2156       O  0.81695781  0.17175384  0.00003258    -1.24500
O2157       O  0.66938015  0.26954067  0.47999322    -0.86800
O2158       O  0.65210240  0.30734905  0.44641401    -0.83800
C2159       C  0.62874480  0.30655349  0.45438054     0.96700
O2160       O  0.62281465  0.31816634  0.47611754    -0.83900
O2161       O  0.62696998  0.32371818  0.03183028    -0.86500
C2162       C  0.63097833  0.30205094  0.04505561     1.01200
O2163       O  0.65276115  0.29025733  0.04361404    -0.79300
O2164       O  0.69298557  0.27036720  0.01659655    -0.79500
C2165       C  0.67972471  0.25814309  0.49938977     1.01100
O2166       O  0.71849160  0.29567300  0.48344696    -0.86800
O2167       O  0.69866351  0.33613072  0.45589435    -0.83900
C2168       C  0.68679295  0.35796943  0.45536843     0.96700
O2169       O  0.66475260  0.36122084  0.46809619    -0.83900
O2170       O  0.66979491  0.36571551  0.02210904    -0.86500
C2171       C  0.68197768  0.36082408  0.04373373     1.01200
O2172       O  0.68080331  0.33787127  0.05291752    -0.79300
O2173       O  0.71819534  0.32076355  0.01915195    -0.79500
C2174       C  0.73025152  0.30925164  0.50050209     1.01100
Cr2175     Cr  0.68354120  0.30322677  0.46915017     1.93700
Cr2176     Cr  0.64683778  0.34097956  0.99952483     1.93200
Cr2177     Cr  0.68515257  0.30582561  0.03036864     1.39100
O2178       O  0.67134330  0.31688907  0.99962449    -1.24500
O2179       O  0.71882163  0.16856645  0.48053088    -0.86800
O2180       O  0.68135696  0.15102446  0.44684695    -0.83800
C2181       C  0.68252626  0.12808410  0.45601755     0.96700
O2182       O  0.67049147  0.12314284  0.47764953    -0.83900
O2183       O  0.66408956  0.12773007  0.03171015    -0.86500
C2184       C  0.68581937  0.13088484  0.04471800     1.01200
O2185       O  0.69777459  0.15258128  0.04429997    -0.79300
O2186       O  0.71862069  0.19271887  0.01676536    -0.79500
C2187       C  0.73067637  0.17981776  0.49908162     1.01100
O2188       O  0.69275538  0.21851688  0.48290564    -0.86800
O2189       O  0.65267802  0.19828498  0.45547287    -0.83900
C2190       C  0.63083263  0.18666422  0.45525266     0.96700
O2191       O  0.62744081  0.16498717  0.46838188    -0.83900
O2192       O  0.62285407  0.17089894  0.02247524    -0.86500
C2193       C  0.62782557  0.18278015  0.04421684     1.01200
O2194       O  0.65091923  0.18214397  0.05311571    -0.79300
O2195       O  0.66940475  0.21956653  0.01960529    -0.79500
C2196       C  0.67965347  0.23068784  0.50021505     1.01100
Cr2197     Cr  0.68538457  0.18309217  0.46915895     1.93700
Cr2198     Cr  0.64739337  0.14786923  0.99994884     1.93200
Cr2199     Cr  0.68313186  0.18567587  0.03076240     1.39100
O2200       O  0.67159944  0.17204426  0.00001743    -1.24500
O2201       O  0.71917321  0.47402498  0.32517926    -0.86800
O2202       O  0.68132996  0.44099715  0.34220916    -0.83800
C2203       C  0.68314282  0.44912780  0.36541004     0.96700
O2204       O  0.67181538  0.47117523  0.37142367    -0.83900
O2205       O  0.66660886  0.02714959  0.36727660    -0.86500
C2206       C  0.68833182  0.04010410  0.36325325     1.01200
O2207       O  0.70029543  0.03803113  0.34160414    -0.79300
O2208       O  0.71919834  0.01017881  0.30086196    -0.79500
C2209       C  0.73102109  0.49280406  0.31435553     1.01100
O2210       O  0.69312416  0.47751353  0.27561763    -0.86800
O2211       O  0.65221150  0.45100814  0.29614717    -0.83900
C2212       C  0.63065959  0.45066593  0.30844617     0.96700
O2213       O  0.62771503  0.46400101  0.33017156    -0.83900
O2214       O  0.62401436  0.01919014  0.32505841    -0.86500
C2215       C  0.62980144  0.04063154  0.31276604     1.01200
O2216       O  0.65321049  0.04842447  0.31330290    -0.79300
O2217       O  0.66892562  0.01429122  0.27595202    -0.79500
C2218       C  0.67995998  0.49498137  0.26375230     1.01100
Cr2219     Cr  0.68543519  0.46369165  0.31085445     1.93700
Cr2220     Cr  0.64864161  0.49539888  0.34728062     1.93200
Cr2221     Cr  0.68434865  0.02503262  0.30901683     1.39100
O2222       O  0.67241313  0.49470638  0.32260343    -1.24500
O2223       O  0.69413537  0.47810860  0.22442502    -0.86800
O2224       O  0.65400186  0.45039709  0.20489737    -0.83800
C2225       C  0.63257656  0.44822949  0.19261871     0.96700
O2226       O  0.62902857  0.46061631  0.17039933    -0.83900
O2227       O  0.62340944  0.01607015  0.17642486    -0.86500
C2228       C  0.62816128  0.03793520  0.18822358     1.01200
O2229       O  0.65094762  0.04737465  0.18666332    -0.79300
O2230       O  0.66864541  0.01433640  0.22450602    -0.79500
C2231       C  0.68014563  0.49501235  0.23620369     1.01100
O2232       O  0.71968172  0.47480449  0.17454320    -0.86800
O2233       O  0.68279951  0.44037880  0.15807869    -0.83900
C2234       C  0.68355456  0.44819407  0.13463482     0.96700
O2235       O  0.67176642  0.46990574  0.12865438    -0.83900
O2236       O  0.66486108  0.02641698  0.13327978    -0.86500
C2237       C  0.68648775  0.03972638  0.13701796     1.01200
O2238       O  0.69853035  0.03821869  0.15858245    -0.79300
O2239       O  0.71905455  0.01165533  0.19884712    -0.79500
C2240       C  0.73130044  0.49366313  0.18549601     1.01100
Cr2241     Cr  0.68660793  0.46351019  0.18941131     1.93700
Cr2242     Cr  0.64848378  0.49311706  0.15307614     1.93200
Cr2243     Cr  0.68330513  0.02527634  0.19116737     1.39100
O2244       O  0.67256033  0.49372907  0.17741952    -1.24500
O2245       O  0.79604282  0.47796297  0.27573686    -0.86800
O2246       O  0.83655940  0.45071011  0.29551757    -0.83800
C2247       C  0.85837920  0.44920828  0.30716796     0.96700
O2248       O  0.86242972  0.46256952  0.32869016    -0.83900
O2249       O  0.86635882  0.01824936  0.32264869    -0.86500
C2250       C  0.86002531  0.04018101  0.31151513     1.01200
O2251       O  0.83666452  0.04812371  0.31320458    -0.79300
O2252       O  0.81978534  0.01446538  0.27566969    -0.79500
C2253       C  0.80912054  0.49539700  0.26369303     1.01100
O2254       O  0.77077338  0.47499741  0.32631816    -0.86800
O2255       O  0.80866864  0.44173256  0.34344008    -0.83900
C2256       C  0.80774669  0.45096664  0.36640812     0.96700
O2257       O  0.82004813  0.47250757  0.37116958    -0.83900
O2258       O  0.82544837  0.02658801  0.36644412    -0.86500
C2259       C  0.80316259  0.03904314  0.36380878     1.01200
O2260       O  0.79055826  0.03809712  0.34245029    -0.79300
O2261       O  0.77034623  0.01083324  0.30172075    -0.79500
C2262       C  0.75863515  0.49328411  0.31490624     1.01100
Cr2263     Cr  0.80403700  0.46400657  0.31125686     1.93700
Cr2264     Cr  0.84257274  0.49499573  0.34597033     1.93200
Cr2265     Cr  0.80540293  0.02522926  0.30925613     1.39100
O2266       O  0.81771321  0.49474480  0.32236521    -1.24500
O2267       O  0.82089031  0.01375973  0.22436539    -0.86800
O2268       O  0.83825076  0.04761247  0.18692477    -0.83800
C2269       C  0.86128351  0.03855505  0.18787280     0.96700
O2270       O  0.86633761  0.01688463  0.17578735    -0.83900
O2271       O  0.86214002  0.46263115  0.16959502    -0.86500
C2272       C  0.85892651  0.44961445  0.19134788     1.01200
O2273       O  0.83710718  0.44983570  0.20314968    -0.79300
O2274       O  0.79678477  0.47748892  0.22389118    -0.79500
C2275       C  0.80967986  0.49503473  0.23593256     1.01100
O2276       O  0.77088440  0.01138198  0.19881873    -0.86800
O2277       O  0.79105804  0.03888470  0.15831416    -0.83900
C2278       C  0.80269866  0.03915379  0.13640687     0.96700
O2279       O  0.82442986  0.02604582  0.13294216    -0.83900
O2280       O  0.81885679  0.47188458  0.12818429    -0.86500
C2281       C  0.80682493  0.45025013  0.13317384     1.01200
O2282       O  0.80797979  0.44111231  0.15613698    -0.79300
O2283       O  0.77082261  0.47513392  0.17400316    -0.79500
C2284       C  0.75900567  0.49379073  0.18526805     1.01100
Cr2285     Cr  0.80629389  0.02520882  0.19105418     1.93700
Cr2286     Cr  0.84196485  0.49436873  0.15264666     1.93200
Cr2287     Cr  0.80421738  0.46356895  0.18829378     1.39100
O2288       O  0.81784534  0.49432506  0.17695316    -1.24500
O2289       O  0.97819378  0.19313585  0.27582785    -0.86800
O2290       O  0.95091180  0.15253262  0.29595459    -0.83800
C2291       C  0.95006140  0.13107064  0.30838913     0.96700
O2292       O  0.96274304  0.12821131  0.33048545    -0.83900
O2293       O  0.51705444  0.12347410  0.32509602    -0.86500
C2294       C  0.53861828  0.12818598  0.31281407     1.01200
O2295       O  0.54766242  0.15119266  0.31351929    -0.79300
O2296       O  0.51372284  0.16802481  0.27622753    -0.79500
C2297       C  0.99550207  0.17958364  0.26416786     1.01100
O2298       O  0.97420693  0.21948471  0.32484886    -0.86800
O2299       O  0.94097422  0.18164366  0.34215269    -0.83900
C2300       C  0.94882905  0.18284299  0.36552723     0.96700
O2301       O  0.97079202  0.17168158  0.37168137    -0.83900
O2302       O  0.52672383  0.16609847  0.36738558    -0.86500
C2303       C  0.54002370  0.18764334  0.36316273     1.01200
O2304       O  0.53848369  0.19917978  0.34132582    -0.79300
O2305       O  0.51090769  0.21865293  0.30146705    -0.79500
C2306       C  0.99365162  0.23080074  0.31466195     1.01100
Cr2307     Cr  0.96374551  0.18568663  0.31079123     1.93700
Cr2308     Cr  0.99441864  0.14857561  0.34760485     1.93200
Cr2309     Cr  0.52501195  0.18325172  0.30914715     1.39100
O2310       O  0.99440133  0.17236777  0.32297979    -1.24500
O2311       O  0.97514370  0.21943763  0.17527379    -0.86800
O2312       O  0.94147266  0.18162493  0.15874581    -0.83800
C2313       C  0.94920675  0.18191733  0.13529275     0.96700
O2314       O  0.97097488  0.17012706  0.12946832    -0.83900
O2315       O  0.52696239  0.16508411  0.13375947    -0.86500
C2316       C  0.53984188  0.18701909  0.13732341     1.01200
O2317       O  0.53836515  0.19905735  0.15891442    -0.79300
O2318       O  0.51167456  0.21906123  0.19908394    -0.79500
C2319       C  0.99447654  0.23083681  0.18558494     1.01100
O2320       O  0.97889593  0.19372941  0.22489200    -0.86800
O2321       O  0.95147495  0.15318613  0.20553946    -0.83900
C2322       C  0.94953483  0.13162760  0.19339812     0.96700
O2323       O  0.96273157  0.12771707  0.17169024    -0.83900
O2324       O  0.51883646  0.12323480  0.17724925    -0.86500
C2325       C  0.54062813  0.12902124  0.18891384     1.01200
O2326       O  0.54863703  0.15233503  0.18768524    -0.79300
O2327       O  0.51483762  0.16912757  0.22494482    -0.79500
C2328       C  0.99594143  0.17996387  0.23668933     1.01100
Cr2329     Cr  0.96442902  0.18592849  0.19001286     1.93700
Cr2330     Cr  0.99490420  0.14762808  0.15412193     1.93200
Cr2331     Cr  0.52564975  0.18380381  0.19163030     1.39100
O2332       O  0.99491149  0.17212700  0.17814330    -1.24500
O2333       O  0.97523288  0.31997121  0.22465875    -0.86800
O2334       O  0.94080835  0.33625865  0.18748583    -0.83800
C2335       C  0.94870574  0.35958995  0.18833259     0.96700
O2336       O  0.97019086  0.36553348  0.17647033    -0.83900
O2337       O  0.52502440  0.36189933  0.17070153    -0.86500
C2338       C  0.53877441  0.35841334  0.19203228     1.01200
O2339       O  0.53887409  0.33648131  0.20365921    -0.79300
O2340       O  0.51171780  0.29608694  0.22453275    -0.79500
C2341       C  0.99408147  0.30904554  0.23646321     1.01100
O2342       O  0.97835219  0.27012676  0.19922131    -0.86800
O2343       O  0.95030532  0.28960250  0.15890451    -0.83900
C2344       C  0.94940186  0.30148190  0.13713941     0.96700
O2345       O  0.96216721  0.32339723  0.13367718    -0.83900
O2346       O  0.51663180  0.31881720  0.12893780    -0.86500
C2347       C  0.53847520  0.30690297  0.13371089     1.01200
O2348       O  0.54756205  0.30749224  0.15669598    -0.79300
O2349       O  0.51450164  0.26973388  0.17486546    -0.79500
C2350       C  0.99523784  0.25817431  0.18550494     1.01100
Cr2351     Cr  0.96391223  0.30505771  0.19152297     1.93700
Cr2352     Cr  0.99363692  0.34126503  0.15359618     1.93200
Cr2353     Cr  0.52540423  0.30349976  0.18891417     1.39100
O2354       O  0.99435213  0.31683323  0.17764083    -1.24500
O2355       O  0.51089760  0.29514075  0.27620403    -0.86800
O2356       O  0.53851551  0.33521733  0.29612533    -0.83800
C2357       C  0.54042844  0.35684116  0.30809279     0.96700
O2358       O  0.52762702  0.36074759  0.32995734    -0.83900
O2359       O  0.97304660  0.36617648  0.32352167    -0.86500
C2360       C  0.95118994  0.36135245  0.31192735     1.01200
O2361       O  0.94179122  0.33855749  0.31348110    -0.79300
O2362       O  0.97539826  0.32046020  0.27594060    -0.79500
C2363       C  0.99394632  0.30896233  0.26416987     1.01100
O2364       O  0.51369687  0.26924408  0.32585916    -0.86800
O2365       O  0.54732780  0.30687701  0.34376436    -0.83900
C2366       C  0.53830952  0.30657398  0.36683846     0.96700
O2367       O  0.51674974  0.31871751  0.37172610    -0.83900
O2368       O  0.96267663  0.32482330  0.36692971    -0.86500
C2369       C  0.94965564  0.30298431  0.36370061     1.01200
O2370       O  0.95004432  0.29117119  0.34192340    -0.79300
O2371       O  0.97729134  0.27054257  0.30189781    -0.79500
C2372       C  0.99446925  0.25822210  0.31505927     1.01100
Cr2373     Cr  0.52503458  0.30269425  0.31155554     1.93700
Cr2374     Cr  0.99489899  0.34155422  0.34693828     1.93200
Cr2375     Cr  0.96377260  0.30615913  0.30928283     1.39100
O2376       O  0.99459512  0.31699132  0.32302227    -1.24500
O2377       O  0.51981679  0.26136469  0.05130267    -0.86800
O2378       O  0.53987739  0.28873528  0.09125809    -0.83800
C2379       C  0.55196560  0.29043439  0.11279805     0.96700
O2380       O  0.57392355  0.27748609  0.11641641    -0.83900
O2381       O  0.56780044  0.22248574  0.12140303    -0.86500
C2382       C  0.55620258  0.20059353  0.11647081     1.01200
O2383       O  0.55722955  0.19156778  0.09344209    -0.79300
O2384       O  0.51981736  0.22575869  0.07632050    -0.79500
C2385       C  0.50794774  0.24434183  0.06501971     1.01100
O2386       O  0.56997186  0.26368879  0.02565337    -0.86800
O2387       O  0.58730711  0.29771775  0.06285859    -0.83900
C2388       C  0.61034000  0.28860187  0.06172722     0.96700
O2389       O  0.61541109  0.26679155  0.07351089    -0.83900
O2390       O  0.61058507  0.21193229  0.07980651    -0.86500
C2391       C  0.60693542  0.19914660  0.05783789     1.01200
O2392       O  0.58531824  0.20085991  0.04586918    -0.79300
O2393       O  0.54506179  0.22813224  0.02600450    -0.79500
C2394       C  0.55881390  0.24499254  0.01397139     1.01100
Cr2395     Cr  0.55525957  0.27529885  0.05875576     1.93700
Cr2396     Cr  0.59089404  0.24468390  0.09677247     1.93200
Cr2397     Cr  0.55284050  0.21416409  0.06142145     1.39100
O2398       O  0.56666395  0.24472196  0.07265277    -1.24500
O2399       O  0.56959595  0.01901427  0.27083497    -0.86800
O2400       O  0.58634177  0.05673740  0.30433628    -0.83800
C2401       C  0.60980832  0.05617596  0.29658310     0.96700
O2402       O  0.61563183  0.06781219  0.27475632    -0.83900
O2403       O  0.61120501  0.07288600  0.21851119    -0.86500
C2404       C  0.60753120  0.05105699  0.20541303     1.01200
O2405       O  0.58610156  0.03885351  0.20736335    -0.79300
O2406       O  0.54579655  0.01941638  0.23441952    -0.74700
C2407       C  0.55942716  0.00755291  0.25146899     1.01100
O2408       O  0.52001149  0.04514125  0.26684237    -0.86800
O2409       O  0.53961218  0.08571840  0.29413245    -0.83900
C2410       C  0.55178122  0.10722959  0.29593742     0.96700
O2411       O  0.57359222  0.11079255  0.28285558    -0.83900
O2412       O  0.56812809  0.11502286  0.22680977    -0.86500
C2413       C  0.55650156  0.10916190  0.20500187     1.01200
O2414       O  0.55753231  0.08574643  0.19714256    -0.79300
O2415       O  0.52024386  0.06967535  0.23101177    -0.79500
C2416       C  0.50831968  0.05890265  0.24972358     1.01100
Cr2417     Cr  0.55499596  0.05271564  0.28133380     1.93700
Cr2418     Cr  0.59106535  0.09050042  0.25072731     1.93200
Cr2419     Cr  0.55343612  0.05449011  0.22023021     1.39100
O2420       O  0.56696965  0.06617856  0.25079166    -1.24500
O2421       O  0.76384804  0.07048674  0.02601418    -0.86800
O2422       O  0.79734327  0.08800544  0.06367983    -0.83800
C2423       C  0.78826801  0.11103365  0.06250297     0.96700
O2424       O  0.76655480  0.11619379  0.07440268    -0.83900
O2425       O  0.71229462  0.11174240  0.08023268    -0.86500
C2426       C  0.69942903  0.10850019  0.05841151     1.01200
O2427       O  0.69996609  0.08673363  0.04646887    -0.79300
O2428       O  0.72777352  0.04629799  0.02601663    -0.79500
C2429       C  0.74538873  0.05918098  0.01408898     1.01100
O2430       O  0.76115750  0.02059488  0.05179814    -0.86800
O2431       O  0.78842334  0.04094018  0.09237682    -0.83900
C2432       C  0.78879639  0.05282140  0.11415706     0.96700
O2433       O  0.77568179  0.07458985  0.11745850    -0.83900
O2434       O  0.72136246  0.06859452  0.12156019    -0.86500
C2435       C  0.69975410  0.05661010  0.11640470     1.01200
O2436       O  0.69082411  0.05765266  0.09336444    -0.79300
O2437       O  0.72494977  0.02042514  0.07589492    -0.79500
C2438       C  0.74369527  0.00861158  0.06480383     1.01100
Cr2439     Cr  0.77499819  0.05603032  0.05949660     1.93700
Cr2440     Cr  0.74398462  0.09168279  0.09731870     1.93200
Cr2441     Cr  0.71355103  0.05382787  0.06145086     1.39100
O2442       O  0.74417062  0.06749739  0.07305126    -1.24500
O2443       O  0.96873258  0.22532667  0.07588523    -0.86800
O2444       O  0.93273557  0.18998266  0.09188098    -0.83800
C2445       C  0.93311753  0.19750835  0.11542215     0.96700
O2446       O  0.92065231  0.21876618  0.12157205    -0.83900
O2447       O  0.91426274  0.27382170  0.11829138    -0.86500
C2448       C  0.93555836  0.28762878  0.11492960     1.01200
O2449       O  0.94700265  0.28813360  0.09296197    -0.79300
O2450       O  0.96793515  0.26185194  0.05223141    -0.79500
C2451       C  0.98018279  0.24441302  0.06516785     1.01100
O2452       O  0.94330900  0.22873018  0.02605081    -0.86800
O2453       O  0.90329670  0.20007636  0.04532436    -0.83900
C2454       C  0.88177963  0.19779409  0.05751411     0.96700
O2455       O  0.87803729  0.21018090  0.07964338    -0.83900
O2456       O  0.87249132  0.26529558  0.07471358    -0.86500
C2457       C  0.87713930  0.28733005  0.06307321     1.01200
O2458       O  0.89984726  0.29680474  0.06465394    -0.79300
O2459       O  0.91794008  0.26414042  0.02636128    -0.79500
C2460       C  0.92964481  0.24591106  0.01431661     1.01100
Cr2461     Cr  0.93587981  0.21366379  0.06086549     1.93700
Cr2462     Cr  0.89739800  0.24225706  0.09745280     1.93200
Cr2463     Cr  0.93217519  0.27495384  0.06004881     1.39100
O2464       O  0.92152283  0.24362470  0.07318638    -1.24500
O2465       O  0.76057796  0.46928192  0.05059690    -0.86800
O2466       O  0.78761221  0.44953071  0.09117939    -0.83800
C2467       C  0.78978207  0.43712053  0.11252385     0.96700
O2468       O  0.77700309  0.41512013  0.11606791    -0.83900
O2469       O  0.72110237  0.42056804  0.12062270    -0.86500
C2470       C  0.69931010  0.43226399  0.11480053     1.01200
O2471       O  0.69127058  0.43135135  0.09145153    -0.79300
O2472       O  0.72467076  0.46904677  0.07501068    -0.79500
C2473       C  0.74328512  0.48105542  0.06412579     1.01100
O2474       O  0.76454827  0.41904523  0.02515066    -0.86800
O2475       O  0.79808404  0.40260040  0.06271929    -0.83900
C2476       C  0.79013846  0.37922610  0.06158579     0.96700
O2477       O  0.76832910  0.37334719  0.07309159    -0.83900
O2478       O  0.71230133  0.37778103  0.07864394    -0.86500
C2479       C  0.69923387  0.38146773  0.05678772     1.01200
O2480       O  0.70130950  0.40290923  0.04448995    -0.79300
O2481       O  0.72850237  0.44345399  0.02501946    -0.79500
C2482       C  0.74570926  0.42979437  0.01327349     1.01100
Cr2483     Cr  0.77505419  0.43405120  0.05842150     1.93700
Cr2484     Cr  0.74468340  0.39777841  0.09602490     1.93200
Cr2485     Cr  0.71407969  0.43568582  0.06004355     1.39100
O2486       O  0.74459831  0.42213160  0.07187198    -1.24500
O2487       O  0.96904142  0.04634810  0.26684585    -0.86800
O2488       O  0.94885188  0.08703561  0.29402931    -0.83800
C2489       C  0.93642493  0.10856003  0.29483550     0.96700
O2490       O  0.91425471  0.11140947  0.28223988    -0.83900
O2491       O  0.91995623  0.11594596  0.22792518    -0.86500
C2492       C  0.93234245  0.11100988  0.20642735     1.01200
O2493       O  0.93145436  0.08801291  0.19730372    -0.79300
O2494       O  0.96893697  0.07116349  0.23118636    -0.79500
C2495       C  0.98084369  0.05968665  0.24956791     1.01100
O2496       O  0.91959384  0.02052016  0.27019522    -0.86800
O2497       O  0.90254233  0.05817978  0.30378202    -0.83900
C2498       C  0.87931172  0.05638404  0.29564560     0.96700
O2499       O  0.87315987  0.06765588  0.27377051    -0.83900
O2500       O  0.87765003  0.07359647  0.21802848    -0.86500
C2501       C  0.88184667  0.05197606  0.20475858     1.01200
O2502       O  0.90366618  0.04025492  0.20640573    -0.79300
O2503       O  0.94385497  0.02078204  0.23406503    -0.79500
C2504       C  0.93039774  0.00882214  0.25122876     1.01100
Cr2505     Cr  0.93395656  0.05400088  0.28107063     1.93700
Cr2506     Cr  0.89721176  0.09104129  0.25045233     1.93200
Cr2507     Cr  0.93595554  0.05606669  0.21986736     1.39100
O2508       O  0.92198182  0.06732277  0.25044923    -1.24500
O2509       O  0.57056555  0.46890785  0.23102308    -0.86800
O2510       O  0.58865182  0.43135915  0.19711608    -0.83800
C2511       C  0.61168148  0.43186847  0.20609686     0.96700
O2512       O  0.61648616  0.41994093  0.22783618    -0.83900
O2513       O  0.61193783  0.41470464  0.28201001    -0.86500
C2514       C  0.60832874  0.43638337  0.29520610     1.01200
O2515       O  0.58623380  0.44774283  0.29522200    -0.79300
O2516       O  0.54638069  0.46814106  0.26730879    -0.79500
C2517       C  0.55978895  0.48018071  0.25027139     1.01100
O2518       O  0.52108889  0.44299619  0.23310803    -0.86800
O2519       O  0.54148229  0.40270450  0.20564421    -0.83900
C2520       C  0.55289796  0.38062352  0.20562577     0.96700
O2521       O  0.57451905  0.37701443  0.21889282    -0.83900
O2522       O  0.56908730  0.37267700  0.27310153    -0.86500
C2523       C  0.55691097  0.37761767  0.29466997     1.01200
O2524       O  0.55726579  0.40069833  0.30356994    -0.79300
O2525       O  0.51990453  0.41903716  0.26953900    -0.79500
C2526       C  0.50879038  0.42992033  0.25024243     1.01100
Cr2527     Cr  0.55650536  0.43539710  0.21949527     1.93700
Cr2528     Cr  0.59187000  0.39721035  0.25046548     1.93200
Cr2529     Cr  0.55355020  0.43280500  0.28115869     1.39100
O2530       O  0.56756895  0.42148763  0.25038473    -1.24500
O2531       O  0.56961881  0.26371499  0.47480387    -0.86800
O2532       O  0.58553188  0.29836373  0.43793820    -0.83800
C2533       C  0.60906754  0.29073663  0.43861521     0.96700
O2534       O  0.61532184  0.26923429  0.42672224    -0.83900
O2535       O  0.61179043  0.21421700  0.42032295    -0.86500
C2536       C  0.60853615  0.20059493  0.44173300     1.01200
O2537       O  0.58672358  0.20045589  0.45350810    -0.79300
O2538       O  0.54611959  0.22715404  0.47445640    -0.79500
C2539       C  0.55900045  0.24471419  0.48648435     1.01100
O2540       O  0.51968766  0.26014388  0.44960357    -0.86800
O2541       O  0.53903327  0.28787417  0.40906530    -0.83900
C2542       C  0.55149802  0.29025526  0.38774367     0.96700
O2543       O  0.57376561  0.27809049  0.38422588    -0.83900
O2544       O  0.56846208  0.22313298  0.37886797    -0.86500
C2545       C  0.55684395  0.20118157  0.38370068     1.01200
O2546       O  0.55821238  0.19183375  0.40653029    -0.79300
O2547       O  0.52000544  0.22468405  0.42452006    -0.79500
C2548       C  0.50795224  0.24314830  0.43585120     1.01100
Cr2549     Cr  0.55454811  0.27491863  0.44178623     1.93700
Cr2550     Cr  0.59120871  0.24594506  0.40362154     1.93200
Cr2551     Cr  0.55373223  0.21373517  0.43876845     1.39100
O2552       O  0.56691413  0.24484072  0.42779484    -1.24500
O2553       O  0.76133883  0.01970868  0.44840287    -0.86800
O2554       O  0.78865649  0.03991430  0.40778843    -0.83800
C2555       C  0.78965972  0.05254763  0.38644741     0.96700
O2556       O  0.77725268  0.07486987  0.38382230    -0.83900
O2557       O  0.72305682  0.06921553  0.37903100    -0.86500
C2558       C  0.70147203  0.05711622  0.38390452     1.01200
O2559       O  0.69228037  0.05818037  0.40686787    -0.79300
O2560       O  0.72558609  0.02017840  0.42375825    -0.79500
C2561       C  0.74390388  0.00805889  0.43512046     1.01100
O2562       O  0.76501501  0.06905679  0.47468197    -0.86800
O2563       O  0.79850506  0.08608456  0.43701455    -0.83900
C2564       C  0.79044866  0.10942157  0.43872575     0.96700
O2565       O  0.76858924  0.11575136  0.42752764    -0.83900
O2566       O  0.71283775  0.11152424  0.42123879    -0.86500
C2567       C  0.69961783  0.10750960  0.44284147     1.01200
O2568       O  0.70146628  0.08585021  0.45474305    -0.79300
O2569       O  0.72865316  0.04528834  0.47434250    -0.79500
C2570       C  0.74594484  0.05852976  0.48638633     1.01100
Cr2571     Cr  0.77577625  0.05474777  0.44099930     1.93700
Cr2572     Cr  0.74538385  0.09185197  0.40406734     1.93200
Cr2573     Cr  0.71461903  0.05336928  0.43892885     1.39100
O2574       O  0.74526251  0.06705182  0.42773487    -1.24500
O2575       O  0.72425814  0.46880349  0.42484724    -0.86800
O2576       O  0.69118618  0.43100415  0.40801623    -0.83800
C2577       C  0.69932471  0.43287534  0.38482341     0.96700
O2578       O  0.72134156  0.42152561  0.37880320    -0.83900
O2579       O  0.77751981  0.41622486  0.38314373    -0.86500
C2580       C  0.79066143  0.43787003  0.38717644     1.01200
O2581       O  0.78867850  0.44979265  0.40888413    -0.79300
O2582       O  0.76025190  0.46887179  0.44919906    -0.79500
C2583       C  0.74310907  0.48063252  0.43552397     1.01100
O2584       O  0.72784276  0.44291504  0.47451020    -0.86800
O2585       O  0.70119489  0.40199789  0.45420536    -0.83900
C2586       C  0.70087089  0.38038968  0.44197723     0.96700
O2587       O  0.71416145  0.37742668  0.42021516    -0.83900
O2588       O  0.76948049  0.37362258  0.42554105    -0.86500
C2589       C  0.79076104  0.37937512  0.43811575     1.01200
O2590       O  0.79856717  0.40280035  0.43774984    -0.79300
O2591       O  0.76407622  0.41880464  0.47452163    -0.79500
C2592       C  0.74523820  0.42963083  0.48634832     1.01100
Cr2593     Cr  0.71391733  0.43516820  0.43933558     1.93700
Cr2594     Cr  0.74553553  0.39832276  0.40293782     1.93200
Cr2595     Cr  0.77519136  0.43402152  0.44148512     1.39100
O2596       O  0.74490762  0.42212319  0.42756012    -1.24500
O2597       O  0.96817483  0.26131478  0.44804174    -0.86800
O2598       O  0.94747078  0.28893815  0.40786936    -0.83800
C2599       C  0.93591765  0.28897872  0.38593913     0.96700
O2600       O  0.91463298  0.27522594  0.38241101    -0.83900
O2601       O  0.92083461  0.22011117  0.37876381    -0.86500
C2602       C  0.93256348  0.19848552  0.38497137     1.01200
O2603       O  0.93123432  0.19055728  0.40830946    -0.79300
O2604       O  0.96847223  0.22455427  0.42463690    -0.79500
C2605       C  0.98020819  0.24343133  0.43540274     1.01100
O2606       O  0.91808731  0.26419473  0.47408819    -0.86800
O2607       O  0.90014973  0.29732613  0.43660409    -0.83900
C2608       C  0.87731558  0.28796389  0.43773159     0.96700
O2609       O  0.87261264  0.26630983  0.42551500    -0.83900
O2610       O  0.87773311  0.21186348  0.42021913    -0.86500
C2611       C  0.88082882  0.19936796  0.44234160     1.01200
O2612       O  0.90231206  0.20057131  0.45472153    -0.79300
O2613       O  0.94296123  0.22847254  0.47430158    -0.79500
C2614       C  0.92958956  0.24586237  0.48607008     1.01100
Cr2615     Cr  0.93250628  0.27521331  0.44063210     1.93700
Cr2616     Cr  0.89754983  0.24352874  0.40277764     1.93200
Cr2617     Cr  0.93519147  0.21372231  0.43943574     1.39100
O2618       O  0.92149405  0.24418118  0.42722026    -1.24500
O2619       O  0.91878861  0.46919793  0.26909971    -0.86800
O2620       O  0.90213466  0.43144237  0.30274288    -0.83800
C2621       C  0.87910500  0.43238014  0.29376031     0.96700
O2622       O  0.87417873  0.42033866  0.27211309    -0.83900
O2623       O  0.87870030  0.41425166  0.21782895    -0.86500
C2624       C  0.88141573  0.43633010  0.20520308     1.01200
O2625       O  0.90274818  0.44889705  0.20612181    -0.79300
O2626       O  0.94331795  0.46951451  0.23326012    -0.79500
C2627       C  0.93002703  0.48125497  0.25072050     1.01100
O2628       O  0.96926691  0.44381060  0.26619026    -0.86800
O2629       O  0.94983232  0.40352446  0.29322564    -0.83900
C2630       C  0.93796535  0.38189860  0.29501560     0.96700
O2631       O  0.91630462  0.37790733  0.28194396    -0.83900
O2632       O  0.92207036  0.37327042  0.22624733    -0.86500
C2633       C  0.93325165  0.37929987  0.20435545     1.01200
O2634       O  0.93221998  0.40269364  0.19639339    -0.79300
O2635       O  0.97008362  0.42038791  0.22944753    -0.79500
C2636       C  0.98137028  0.43048508  0.24898987     1.01100
Cr2637     Cr  0.93399020  0.43598551  0.28014897     1.93700
Cr2638     Cr  0.89902694  0.39749164  0.24958406     1.93200
Cr2639     Cr  0.93607649  0.43429263  0.21895125     1.39100
O2640       O  0.92284540  0.42213272  0.24953237    -1.24500
O2641       O  0.76950085  0.29497623  0.98424815    -0.86800
O2642       O  0.78889036  0.33556246  0.95696175    -0.83800
C2643       C  0.80125206  0.35691288  0.95479037     0.96700
O2644       O  0.82307800  0.36050212  0.96794511    -0.83900
O2645       O  0.82273096  0.36074956  0.53247074    -0.86500
C2646       C  0.80088384  0.35714960  0.54553687     1.01200
O2647       O  0.78877187  0.33564464  0.54382309    -0.79300
O2648       O  0.76925723  0.29534518  0.51696015    -0.79500
C2649       C  0.75768942  0.30880652  0.00122038     1.01100
O2650       O  0.81926421  0.26925927  0.98051225    -0.86800
O2651       O  0.83575265  0.30696782  0.94688597    -0.83900
C2652       C  0.85918083  0.30615578  0.95470333     0.96700
O2653       O  0.86503025  0.31752901  0.97662320    -0.83900
O2654       O  0.86468841  0.31730363  0.52428845    -0.86500
C2655       C  0.85881908  0.30569822  0.54611637     1.01200
O2656       O  0.83549445  0.30698176  0.55408969    -0.79300
O2657       O  0.81930108  0.26961266  0.52026344    -0.79500
C2658       C  0.80894419  0.25777155  0.99976427     1.01100
Cr2659     Cr  0.80443566  0.30271865  0.96984060     1.93700
Cr2660     Cr  0.84030608  0.34040079  0.50034150     1.93200
Cr2661     Cr  0.80428670  0.30291077  0.53104140     1.39100
O2662       O  0.81594632  0.31638721  0.50040922    -1.24500
O2663       O  0.77040081  0.19323181  0.51626503    -0.86800
O2664       O  0.79008343  0.15312837  0.54389448    -0.83800
C2665       C  0.80177693  0.13130186  0.54561861     0.96700
O2666       O  0.82335829  0.12698118  0.53237843    -0.83900
O2667       O  0.81738541  0.12288649  0.97659761    -0.86500
C2668       C  0.80633006  0.12902935  0.95465369     1.01200
O2669       O  0.80810091  0.15228165  0.94658210    -0.79300
O2670       O  0.77014136  0.16902583  0.98019816    -0.79500
C2671       C  0.75828578  0.17990535  0.99904862     1.01100
O2672       O  0.82102939  0.21827832  0.51909447    -0.86800
O2673       O  0.83792954  0.18082775  0.55287062    -0.83900
C2674       C  0.86094171  0.18149426  0.54375133     0.96700
O2675       O  0.86580362  0.16903841  0.52231761    -0.83900
O2676       O  0.86107895  0.16425044  0.96843668    -0.86500
C2677       C  0.85813590  0.18657144  0.95609018     1.01200
O2678       O  0.83648230  0.19872607  0.95666304    -0.79300
O2679       O  0.79575324  0.21861486  0.98343119    -0.79500
C2680       C  0.80931393  0.23051390  0.00038917     1.01100
Cr2681     Cr  0.80586419  0.18535027  0.53043037     1.93700
Cr2682     Cr  0.84079524  0.14643518  0.49994028     1.93200
Cr2683     Cr  0.80358246  0.18358204  0.96938075     1.39100
O2684       O  0.81708628  0.17128575  0.49992378    -1.24500
O2685       O  0.66960907  0.26951979  0.97981076    -0.86800
O2686       O  0.65201843  0.30738972  0.94639771    -0.83800
C2687       C  0.62864576  0.30649984  0.95433064     0.96700
O2688       O  0.62258454  0.31803175  0.97609365    -0.83900
O2689       O  0.62704157  0.32371448  0.53179132    -0.86500
C2690       C  0.63103932  0.30208622  0.54507598     1.01200
O2691       O  0.65280324  0.29027663  0.54368499    -0.79300
O2692       O  0.69291079  0.27014588  0.51668369    -0.79500
C2693       C  0.67996033  0.25822236  0.99927211     1.01100
O2694       O  0.71851565  0.29589812  0.98351524    -0.86800
O2695       O  0.69830597  0.33646360  0.95590945    -0.83900
C2696       C  0.68604840  0.35809442  0.95507625     0.96700
O2697       O  0.66400570  0.36117057  0.96778851    -0.83900
O2698       O  0.66975440  0.36562225  0.52249384    -0.86500
C2699       C  0.68174688  0.36075724  0.54421500     1.01200
O2700       O  0.68114381  0.33766855  0.55315532    -0.79300
O2701       O  0.71877489  0.31993623  0.51961534    -0.79500
C2702       C  0.73018939  0.30932014  0.00081849     1.01100
Cr2703     Cr  0.68349687  0.30337091  0.96907494     1.93700
Cr2704     Cr  0.64712673  0.34098052  0.49963817     1.93200
Cr2705     Cr  0.68534667  0.30557289  0.53055978     1.39100
O2706       O  0.67163243  0.31686087  0.49977598    -1.24500
O2707       O  0.71875902  0.16828327  0.98075616    -0.86800
O2708       O  0.68126747  0.15111654  0.94687253    -0.83800
C2709       C  0.68252558  0.12818184  0.95603599     0.96700
O2710       O  0.67056416  0.12321408  0.97768322    -0.83900
O2711       O  0.66430299  0.12779214  0.53178579    -0.86500
C2712       C  0.68607636  0.13095519  0.54470983     1.01200
O2713       O  0.69813957  0.15259761  0.54409984    -0.79300
O2714       O  0.71871314  0.19299938  0.51652600    -0.79500
C2715       C  0.73058278  0.17952737  0.99932413     1.01100
O2716       O  0.69314130  0.21848101  0.98305500    -0.86800
O2717       O  0.65293978  0.19850873  0.95550845    -0.83900
C2718       C  0.63114619  0.18679046  0.95502687     0.96700
O2719       O  0.62769613  0.16506818  0.96808001    -0.83900
O2720       O  0.62307370  0.17088871  0.52276094    -0.86500
C2721       C  0.62815826  0.18271964  0.54450448     1.01200
O2722       O  0.65128284  0.18197787  0.55330399    -0.79300
O2723       O  0.66930564  0.21946178  0.51965413    -0.79500
C2724       C  0.67995064  0.23074149  0.00023546     1.01100
Cr2725     Cr  0.68550942  0.18310092  0.96925882     1.93700
Cr2726     Cr  0.64743633  0.14783291  0.50008476     1.93200
Cr2727     Cr  0.68331046  0.18566979  0.53069257     1.39100
O2728       O  0.67165804  0.17199892  0.49999301    -1.24500
O2729       O  0.71873914  0.47432085  0.82514428    -0.86800
O2730       O  0.68068866  0.44142596  0.84190489    -0.83800
C2731       C  0.68250289  0.44943259  0.86515583     0.96700
O2732       O  0.67130285  0.47146236  0.87132556    -0.83900
O2733       O  0.66637499  0.02737924  0.86736059    -0.86500
C2734       C  0.68802802  0.04043673  0.86329816     1.01200
O2735       O  0.69991195  0.03850346  0.84160231    -0.79300
O2736       O  0.71914186  0.01040059  0.80128724    -0.79500
C2737       C  0.73071198  0.49304870  0.81439063     1.01100
O2738       O  0.69278087  0.47837298  0.77556988    -0.86800
O2739       O  0.65181070  0.45175122  0.79582241    -0.83900
C2740       C  0.63036633  0.45110695  0.80828518     0.96700
O2741       O  0.62744437  0.46427324  0.83010319    -0.83900
O2742       O  0.62380277  0.01954256  0.82506710    -0.86500
C2743       C  0.62954861  0.04091185  0.81260651     1.01200
O2744       O  0.65298952  0.04863471  0.81285496    -0.79300
O2745       O  0.66905927  0.01429107  0.77593353    -0.79500
C2746       C  0.67983894  0.49609068  0.76381139     1.01100
Cr2747     Cr  0.68501447  0.46422949  0.81067122     1.93700
Cr2748     Cr  0.64824905  0.49567635  0.84728567     1.93200
Cr2749     Cr  0.68420993  0.02525380  0.80901973     1.39100
O2750       O  0.67207788  0.49514001  0.82265036    -1.24500
O2751       O  0.69410141  0.47936926  0.72448545    -0.86800
O2752       O  0.65357201  0.45182246  0.70541497    -0.83800
C2753       C  0.63229553  0.44927683  0.69294782     0.96700
O2754       O  0.62881796  0.46150920  0.67063115    -0.83900
O2755       O  0.62326609  0.01628005  0.67656745    -0.86500
C2756       C  0.62802337  0.03809543  0.68846818     1.01200
O2757       O  0.65087980  0.04742213  0.68715718    -0.79300
O2758       O  0.66862141  0.01407914  0.72462609    -0.79500
C2759       C  0.68023263  0.49636764  0.73626462     1.01100
O2760       O  0.71928965  0.47545683  0.67449970    -0.86800
O2761       O  0.68188062  0.44134764  0.65847768    -0.83900
C2762       C  0.68283942  0.44907399  0.63501159     0.96700
O2763       O  0.67135455  0.47086193  0.62887140    -0.83900
O2764       O  0.66477469  0.02656583  0.63346720    -0.86500
C2765       C  0.68640575  0.03985820  0.63723142     1.01200
O2766       O  0.69840329  0.03836069  0.65882438    -0.79300
O2767       O  0.71898300  0.01144246  0.69883295    -0.79500
C2768       C  0.73112970  0.49422825  0.68535528     1.01100
Cr2769     Cr  0.68621110  0.46455649  0.68965682     1.93700
Cr2770     Cr  0.64820926  0.49404358  0.65324443     1.93200
Cr2771     Cr  0.68322937  0.02520401  0.69136801     1.39100
O2772       O  0.67235120  0.49474890  0.67753022    -1.24500
O2773       O  0.79571798  0.47793538  0.77556898    -0.86800
O2774       O  0.83618909  0.45037773  0.79515961    -0.83800
C2775       C  0.85798289  0.44883537  0.80688001     0.96700
O2776       O  0.86196545  0.46204180  0.82848746    -0.83900
O2777       O  0.86619391  0.01846227  0.82251016    -0.86500
C2778       C  0.85978106  0.04036105  0.81134294     1.01200
O2779       O  0.83640736  0.04824559  0.81303896    -0.79300
O2780       O  0.81953415  0.01451190  0.77557359    -0.79500
C2781       C  0.80894004  0.49533566  0.76367309     1.01100
O2782       O  0.77032906  0.47464153  0.82591158    -0.86800
O2783       O  0.80803295  0.44096054  0.84275791    -0.83900
C2784       C  0.80715791  0.44994505  0.86580519     0.96700
O2785       O  0.81947888  0.47145233  0.87079349    -0.83900
O2786       O  0.82535154  0.02673943  0.86636630    -0.86500
C2787       C  0.80306351  0.03919582  0.86373929     1.01200
O2788       O  0.79042115  0.03818738  0.84240695    -0.79300
O2789       O  0.77019562  0.01077906  0.80179976    -0.79500
C2790       C  0.75832146  0.49318425  0.81475236     1.01100
Cr2791     Cr  0.80361044  0.46364512  0.81087680     1.93700
Cr2792     Cr  0.84212310  0.49427609  0.84594894     1.93200
Cr2793     Cr  0.80521100  0.02527757  0.80919871     1.39100
O2794       O  0.81733958  0.49427791  0.82228454    -1.24500
O2795       O  0.82078713  0.01364506  0.72425203    -0.86800
O2796       O  0.83808925  0.04749497  0.68672780    -0.83800
C2797       C  0.86114742  0.03850536  0.68766896     0.96700
O2798       O  0.86624829  0.01681480  0.67562698    -0.83900
O2799       O  0.86181116  0.46244299  0.66965771    -0.86500
C2800       C  0.85865159  0.44947465  0.69143699     1.01200
O2801       O  0.83687440  0.44974995  0.70333063    -0.79300
O2802       O  0.79656127  0.47751404  0.72397712    -0.79500
C2803       C  0.80955729  0.49499676  0.73596827     1.01100
O2804       O  0.77078252  0.01116759  0.69869451    -0.86800
O2805       O  0.79092671  0.03864503  0.65818184    -0.83900
C2806       C  0.80260181  0.03897173  0.63629871     0.96700
O2807       O  0.82435160  0.02591089  0.63282727    -0.83900
O2808       O  0.81839519  0.47146905  0.62841887    -0.86500
C2809       C  0.80637369  0.44984104  0.63356130     1.01200
O2810       O  0.80761566  0.44082024  0.65654554    -0.79300
O2811       O  0.77050115  0.47504177  0.67427270    -0.79500
C2812       C  0.75882492  0.49391939  0.68534315     1.01100
Cr2813     Cr  0.80617640  0.02504018  0.69091718     1.93700
Cr2814     Cr  0.84163564  0.49412071  0.65268673     1.93200
Cr2815     Cr  0.80394047  0.46346765  0.68851672     1.39100
O2816       O  0.81759352  0.49418834  0.67704475    -1.24500
O2817       O  0.97759815  0.19332477  0.77561955    -0.86800
O2818       O  0.95018828  0.15295623  0.79601031    -0.83800
C2819       C  0.94947728  0.13145309  0.80838079     0.96700
O2820       O  0.96216118  0.12864220  0.83048799    -0.83900
O2821       O  0.51646545  0.12388919  0.82518498    -0.86500
C2822       C  0.53803532  0.12852968  0.81285040     1.01200
O2823       O  0.54710902  0.15152752  0.81354294    -0.79300
O2824       O  0.51316985  0.16823263  0.77623849    -0.79500
C2825       C  0.99484856  0.17968468  0.76397489     1.01100
O2826       O  0.97382374  0.21994234  0.82451691    -0.86800
O2827       O  0.94037544  0.18259410  0.84214111    -0.83900
C2828       C  0.94827410  0.18378729  0.86551635     0.96700
O2829       O  0.97020997  0.17243761  0.87159094    -0.83900
O2830       O  0.52627300  0.16660889  0.86733366    -0.86500
C2831       C  0.53972286  0.18803993  0.86301325     1.01200
O2832       O  0.53806468  0.19962325  0.84120175    -0.79300
O2833       O  0.51043611  0.21898865  0.80123321    -0.79500
C2834       C  0.99330624  0.23115398  0.81430827     1.01100
Cr2835     Cr  0.96319587  0.18614483  0.81067195     1.93700
Cr2836     Cr  0.99385713  0.14906543  0.84754984     1.93200
Cr2837     Cr  0.52448992  0.18360551  0.80908353     1.39100
O2838       O  0.99386192  0.17275709  0.82283903    -1.24500
O2839       O  0.97501726  0.21992486  0.67517508    -0.86800
O2840       O  0.94109959  0.18259357  0.65827866    -0.83800
C2841       C  0.94884083  0.18270232  0.63482579     0.96700
O2842       O  0.97056995  0.17071388  0.62910371    -0.83900
O2843       O  0.52659608  0.16546001  0.63370995    -0.86500
C2844       C  0.53962824  0.18729271  0.63740626     1.01200
O2845       O  0.53804382  0.19932289  0.65900363    -0.79300
O2846       O  0.51133408  0.21920032  0.69931091    -0.79500
C2847       C  0.99432400  0.23120407  0.68565401     1.01100
O2848       O  0.97835317  0.19389275  0.72466966    -0.86800
O2849       O  0.95073896  0.15366099  0.70496244    -0.83900
C2850       C  0.94903669  0.13200855  0.69294571     0.96700
O2851       O  0.96234079  0.12809781  0.67129799    -0.83900
O2852       O  0.51832314  0.12347316  0.67703350    -0.86500
C2853       C  0.54011813  0.12921221  0.68873033     1.01200
O2854       O  0.54814238  0.15250924  0.68753451    -0.79300
O2855       O  0.51426640  0.16913353  0.72490097    -0.79500
C2856       C  0.99531720  0.18004232  0.73648576     1.01100
Cr2857     Cr  0.96401522  0.18641419  0.68966598     1.93700
Cr2858     Cr  0.99452131  0.14807681  0.65380237     1.93200
Cr2859     Cr  0.52519194  0.18395277  0.69164640     1.39100
O2860       O  0.99450669  0.17250605  0.67789117    -1.24500
O2861       O  0.97457828  0.32035861  0.72441634    -0.86800
O2862       O  0.94066640  0.33657876  0.68664709    -0.83800
C2863       C  0.94864051  0.35986595  0.68789257     0.96700
O2864       O  0.97020447  0.36588862  0.67620971    -0.83900
O2865       O  0.52509640  0.36228174  0.67064043    -0.86500
C2866       C  0.53882422  0.35877972  0.69195915     1.01200
O2867       O  0.53890907  0.33684043  0.70357188    -0.79300
O2868       O  0.51139988  0.29673692  0.72454743    -0.79500
C2869       C  0.99346633  0.30960112  0.73633352     1.01100
O2870       O  0.97814576  0.27054799  0.69910314    -0.86800
O2871       O  0.95065099  0.28989168  0.65824321    -0.83900
C2872       C  0.94983993  0.30184768  0.63650532     0.96700
O2873       O  0.96239717  0.32388819  0.63324266    -0.83900
O2874       O  0.51695985  0.31924361  0.62883541    -0.86500
C2875       C  0.53865409  0.30708633  0.63370393     1.01200
O2876       O  0.54761860  0.30747456  0.65675335    -0.79300
O2877       O  0.51450650  0.26992528  0.67511106    -0.79500
C2878       C  0.99517515  0.25854739  0.68561853     1.01100
Cr2879     Cr  0.96374336  0.30541867  0.69106417     1.93700
Cr2880     Cr  0.99372407  0.34166920  0.65333836     1.93200
Cr2881     Cr  0.52536109  0.30380590  0.68895806     1.39100
O2882       O  0.99428949  0.31724464  0.67742633    -1.24500
O2883       O  0.51040696  0.29564710  0.77606290    -0.86800
O2884       O  0.53843871  0.33542671  0.79592429    -0.83800
C2885       C  0.54048512  0.35702226  0.80790922     0.96700
O2886       O  0.52780146  0.36096289  0.82981541    -0.83900
O2887       O  0.97325579  0.36665378  0.82346356    -0.86500
C2888       C  0.95126614  0.36178830  0.81212776     1.01200
O2889       O  0.94177780  0.33906890  0.81411425    -0.79300
O2890       O  0.97472198  0.32083278  0.77596148    -0.79500
C2891       C  0.99329162  0.30945890  0.76407748     1.01100
O2892       O  0.51342285  0.26954120  0.82561829    -0.86800
O2893       O  0.54728787  0.30686457  0.84353720    -0.83900
C2894       C  0.53838382  0.30666342  0.86667251     0.96700
O2895       O  0.51695771  0.31902029  0.87164617    -0.83900
O2896       O  0.96320076  0.32555961  0.86720818    -0.86500
C2897       C  0.95031313  0.30362961  0.86424216     1.01200
O2898       O  0.95046216  0.29172856  0.84250188    -0.79300
O2899       O  0.97690462  0.27100294  0.80191776    -0.79500
C2900       C  0.99422545  0.25858026  0.81477980     1.01100
Cr2901     Cr  0.52483231  0.30295890  0.81135961     1.93700
Cr2902     Cr  0.99522988  0.34206946  0.84684834     1.93200
Cr2903     Cr  0.96361394  0.30663740  0.80958810     1.39100
O2904       O  0.99462176  0.31743187  0.82297235    -1.24500
O2905       O  0.52016522  0.26099070  0.55140806    -0.86800
O2906       O  0.53999538  0.28868791  0.59129506    -0.83800
C2907       C  0.55211054  0.29053099  0.61281733     0.96700
O2908       O  0.57407714  0.27761441  0.61647296    -0.83900
O2909       O  0.56790779  0.22263262  0.62162340    -0.86500
C2910       C  0.55632571  0.20072478  0.61669402     1.01200
O2911       O  0.55770063  0.19154065  0.59374570    -0.79300
O2912       O  0.52011187  0.22537891  0.57643630    -0.79500
C2913       C  0.50828087  0.24389681  0.56501022     1.01100
O2914       O  0.57021702  0.26342373  0.52580115    -0.86800
O2915       O  0.58738036  0.29770115  0.56286083    -0.83900
C2916       C  0.61043288  0.28864687  0.56177925     0.96700
O2917       O  0.61556467  0.26688386  0.57364335    -0.83900
O2918       O  0.61092839  0.21196921  0.58012268    -0.86500
C2919       C  0.60733224  0.19915359  0.55815280     1.01200
O2920       O  0.58575204  0.20085606  0.54614783    -0.79300
O2921       O  0.54541978  0.22777671  0.52617152    -0.79500
C2922       C  0.55895019  0.24479415  0.51411425     1.01100
Cr2923     Cr  0.55545074  0.27513379  0.55883897     1.93700
Cr2924     Cr  0.59110265  0.24476138  0.59696639     1.93200
Cr2925     Cr  0.55323500  0.21398166  0.56164369     1.39100
O2926       O  0.56691612  0.24464375  0.57282345    -1.24500
O2927       O  0.56928047  0.01928898  0.77064705    -0.86800
O2928       O  0.58598270  0.05689203  0.80427885    -0.83800
C2929       C  0.60945153  0.05647392  0.79651980     0.96700
O2930       O  0.61520817  0.06825737  0.77475031    -0.83900
O2931       O  0.61085639  0.07317804  0.71854464    -0.86500
C2932       C  0.60726667  0.05130993  0.70547353     1.01200
O2933       O  0.58580541  0.03913676  0.70729240    -0.79300
O2934       O  0.54545548  0.01966349  0.73425854    -0.74700
C2935       C  0.55915015  0.00781746  0.75126289     1.01100
O2936       O  0.51970391  0.04538278  0.76672527    -0.86800
O2937       O  0.53917294  0.08593840  0.79421825    -0.83900
C2938       C  0.55122577  0.10753261  0.79594476     0.96700
O2939       O  0.57297336  0.11116447  0.78275854    -0.83900
O2940       O  0.56757372  0.11526126  0.72667786    -0.86500
C2941       C  0.55600083  0.10937016  0.70484519     1.01200
O2942       O  0.55715404  0.08596718  0.69697652    -0.79300
O2943       O  0.51988407  0.06987933  0.73085580    -0.79500
C2944       C  0.50800885  0.05916727  0.74963595     1.01100
Cr2945     Cr  0.55463099  0.05295216  0.78125650     1.93700
Cr2946     Cr  0.59057618  0.09084708  0.75067108     1.93200
Cr2947     Cr  0.55309250  0.05473941  0.72010530     1.39100
O2948       O  0.56656346  0.06646198  0.75071270    -1.24500
O2949       O  0.76376859  0.07059427  0.52606124    -0.86800
O2950       O  0.79735832  0.08787242  0.56380529    -0.83800
C2951       C  0.78833007  0.11091081  0.56257782     0.96700
O2952       O  0.76661903  0.11612019  0.57444606    -0.83900
O2953       O  0.71242958  0.11184028  0.58031433    -0.86500
C2954       C  0.69955450  0.10858562  0.55850899     1.01200
O2955       O  0.69991021  0.08676878  0.54666774    -0.79300
O2956       O  0.72764972  0.04646217  0.52604696    -0.79500
C2957       C  0.74530997  0.05929778  0.51412484     1.01100
O2958       O  0.76103853  0.02058578  0.55161924    -0.86800
O2959       O  0.78828081  0.04078312  0.59231245    -0.83900
C2960       C  0.78872370  0.05266627  0.61409109     0.96700
O2961       O  0.77568860  0.07447195  0.61743841    -0.83900
O2962       O  0.72133662  0.06867096  0.62169174    -0.86500
C2963       C  0.69973023  0.05665802  0.61656988     1.01200
O2964       O  0.69082479  0.05757188  0.59351322    -0.79300
O2965       O  0.72492774  0.02039226  0.57584771    -0.79500
C2966       C  0.74361155  0.00857923  0.56464383     1.01100
Cr2967     Cr  0.77491490  0.05598874  0.55948411     1.93700
Cr2968     Cr  0.74402332  0.09166867  0.59738401     1.93200
Cr2969     Cr  0.71349392  0.05384414  0.56154186     1.39100
O2970       O  0.74412714  0.06747379  0.57311530    -1.24500
O2971       O  0.96896283  0.22507450  0.57530615    -0.86800
O2972       O  0.93242594  0.19050125  0.59131557    -0.83800
C2973       C  0.93273963  0.19822849  0.61478038     0.96700
O2974       O  0.92022307  0.21958205  0.62067326    -0.83900
O2975       O  0.91459908  0.27478982  0.61719547    -0.86500
C2976       C  0.93628816  0.28801367  0.61413859     1.01200
O2977       O  0.94825278  0.28794585  0.59241163    -0.79300
O2978       O  0.96879367  0.26138814  0.55145605    -0.79500
C2979       C  0.98072611  0.24396774  0.56464180     1.01100
O2980       O  0.94351180  0.22883059  0.52536488    -0.86800
O2981       O  0.90325231  0.20056160  0.54465099    -0.83900
C2982       C  0.88166396  0.19852152  0.55675284     0.96700
O2983       O  0.87769508  0.21157210  0.57847889    -0.83900
O2984       O  0.87287276  0.26769335  0.57354865    -0.86500
C2985       C  0.87859651  0.28967454  0.56212334     1.01200
O2986       O  0.90181389  0.29783836  0.56352437    -0.79300
O2987       O  0.91897155  0.26482652  0.52562334    -0.79500
C2988       C  0.92997101  0.24614127  0.51365858     1.01100
Cr2989     Cr  0.93590807  0.21394709  0.56021406     1.93700
Cr2990     Cr  0.89739431  0.24352387  0.59629770     1.93200
Cr2991     Cr  0.93339959  0.27521233  0.55927341     1.39100
O2992       O  0.92185501  0.24421486  0.57228616    -1.24500
O2993       O  0.76063844  0.46861586  0.55118540    -0.86800
O2994       O  0.78751070  0.44858225  0.59149609    -0.83800
C2995       C  0.78924327  0.43657659  0.61307251     0.96700
O2996       O  0.77595946  0.41492515  0.61694802    -0.83900
O2997       O  0.72023443  0.42133940  0.62144901    -0.86500
C2998       C  0.69852105  0.43297748  0.61539747     1.01200
O2999       O  0.69053285  0.43179033  0.59203153    -0.79300
O3000       O  0.72447956  0.46907242  0.57537163    -0.79500
C3001       C  0.74333638  0.48073381  0.56447015     1.01100
O3002       O  0.76344974  0.41808509  0.52586924    -0.86800
O3003       O  0.79679915  0.40082586  0.56366503    -0.83900
C3004       C  0.78756593  0.37792226  0.56239465     0.96700
O3005       O  0.76570781  0.37313465  0.57415858    -0.83900
O3006       O  0.71069290  0.37829374  0.57989897    -0.86500
C3007       C  0.69829732  0.38167536  0.55763209     1.01200
O3008       O  0.70058092  0.40301806  0.54520497    -0.79300
O3009       O  0.72799757  0.44334118  0.52563344    -0.79500
C3010       C  0.74509810  0.42956605  0.51389398     1.01100
Cr3011     Cr  0.77446881  0.43302695  0.55904289     1.93700
Cr3012     Cr  0.74325158  0.39799341  0.59711327     1.93200
Cr3013     Cr  0.71345844  0.43579495  0.56063073     1.39100
O3014       O  0.74373129  0.42200699  0.57269252    -1.24500
O3015       O  0.96868925  0.04648822  0.76689945    -0.86800
O3016       O  0.94845944  0.08736354  0.79394787    -0.83800
C3017       C  0.93597741  0.10887357  0.79472189     0.96700
O3018       O  0.91386796  0.11167814  0.78199112    -0.83900
O3019       O  0.91956282  0.11616041  0.72756363    -0.86500
C3020       C  0.93204564  0.11125356  0.70609907     1.01200
O3021       O  0.93145853  0.08819115  0.69710212    -0.79300
O3022       O  0.96867567  0.07134232  0.73127360    -0.79500
C3023       C  0.98054355  0.05975430  0.74961042     1.01100
O3024       O  0.91920517  0.02075632  0.77014162    -0.86800
O3025       O  0.90218340  0.05857470  0.80364531    -0.83900
C3026       C  0.87899739  0.05662187  0.79546007     0.96700
O3027       O  0.87285072  0.06780183  0.77353529    -0.83900
O3028       O  0.87738057  0.07363819  0.71779766    -0.86500
C3029       C  0.88167565  0.05204557  0.70451067     1.01200
O3030       O  0.90355667  0.04044355  0.70612112    -0.79300
O3031       O  0.94352008  0.02098959  0.73403913    -0.79500
C3032       C  0.93006517  0.00903800  0.75121199     1.01100
Cr3033     Cr  0.93358565  0.05427495  0.78099011     1.93700
Cr3034     Cr  0.89688144  0.09121564  0.75019286     1.93200
Cr3035     Cr  0.93576470  0.05626645  0.71976935     1.39100
O3036       O  0.92169087  0.06754967  0.75029225    -1.24500
O3037       O  0.57042145  0.46920931  0.73116883    -0.86800
O3038       O  0.58854352  0.43181914  0.69716977    -0.83800
C3039       C  0.61152783  0.43258741  0.70624528     0.96700
O3040       O  0.61637074  0.42058601  0.72793052    -0.83900
O3041       O  0.61179815  0.41503951  0.78197360    -0.86500
C3042       C  0.60810236  0.43669826  0.79515826     1.01200
O3043       O  0.58595998  0.44795034  0.79524871    -0.79300
O3044       O  0.54614970  0.46839162  0.76738831    -0.79500
C3045       C  0.55967370  0.48044717  0.75044704     1.01100
O3046       O  0.52091430  0.44330180  0.73310216    -0.86800
O3047       O  0.54140593  0.40305170  0.70563466    -0.83900
C3048       C  0.55289969  0.38100680  0.70555788     0.96700
O3049       O  0.57456879  0.37745182  0.71875480    -0.83900
O3050       O  0.56913097  0.37290475  0.77293228    -0.86500
C3051       C  0.55692457  0.37779305  0.79449442     1.01200
O3052       O  0.55716766  0.40085833  0.80342590    -0.79300
O3053       O  0.51965919  0.41922733  0.76944454    -0.79500
C3054       C  0.50857467  0.43009896  0.75010784     1.01100
Cr3055     Cr  0.55636666  0.43575085  0.71952887     1.93700
Cr3056     Cr  0.59182370  0.39760346  0.75039505     1.93200
Cr3057     Cr  0.55332379  0.43300689  0.78114496     1.39100
O3058       O  0.56741142  0.42178034  0.75037860    -1.24500
O3059       O  0.56996053  0.26356522  0.97459205    -0.86800
O3060       O  0.58558859  0.29830919  0.93759744    -0.83800
C3061       C  0.60911145  0.29070102  0.93842885     0.96700
O3062       O  0.61546347  0.26923583  0.92652832    -0.83900
O3063       O  0.61211635  0.21427804  0.91998770    -0.86500
C3064       C  0.60889003  0.20064745  0.94139909     1.01200
O3065       O  0.58707510  0.20039236  0.95313125    -0.79300
O3066       O  0.54658879  0.22690319  0.97431127    -0.79500
C3067       C  0.55926742  0.24462758  0.98632865     1.01100
O3068       O  0.52006558  0.25985125  0.94958518    -0.86800
O3069       O  0.53908091  0.28770363  0.90887257    -0.83900
C3070       C  0.55156397  0.29024155  0.88756225     0.96700
O3071       O  0.57387877  0.27815684  0.88404033    -0.83900
O3072       O  0.56859913  0.22324577  0.87858623    -0.86500
C3073       C  0.55687752  0.20135256  0.88342710     1.01200
O3074       O  0.55845816  0.19185838  0.90618588    -0.79300
O3075       O  0.52019767  0.22441408  0.92447771    -0.79500
C3076       C  0.50824067  0.24284567  0.93594318     1.01100
Cr3077     Cr  0.55475139  0.27476340  0.94159093     1.93700
Cr3078     Cr  0.59140562  0.24598121  0.90335632     1.93200
Cr3079     Cr  0.55404993  0.21358945  0.93852967     1.39100
O3080       O  0.56713922  0.24474631  0.92755255    -1.24500
O3081       O  0.76130685  0.01987562  0.94821281    -0.86800
O3082       O  0.78869411  0.04019893  0.90775424    -0.83800
C3083       C  0.78959360  0.05276032  0.88637097     0.96700
O3084       O  0.77710572  0.07503467  0.88370521    -0.83900
O3085       O  0.72286821  0.06941853  0.87904020    -0.86500
C3086       C  0.70124901  0.05738932  0.88394827     1.01200
O3087       O  0.69212418  0.05845117  0.90693518    -0.79300
O3088       O  0.72548640  0.02037913  0.92364806    -0.79500
C3089       C  0.74381498  0.00824103  0.93497869     1.01100
O3090       O  0.76491348  0.06920783  0.97463778    -0.86800
O3091       O  0.79843032  0.08635339  0.93709767    -0.83900
C3092       C  0.79038134  0.10970450  0.93868510     0.96700
O3093       O  0.76853949  0.11598898  0.92741673    -0.83900
O3094       O  0.71277898  0.11168566  0.92123323    -0.86500
C3095       C  0.69962473  0.10765699  0.94286582     1.01200
O3096       O  0.70152701  0.08601393  0.95479078    -0.79300
O3097       O  0.72864026  0.04532914  0.97428386    -0.79500
C3098       C  0.74593099  0.05854515  0.98634835     1.01100
Cr3099     Cr  0.77572501  0.05496912  0.94094976     1.93700
Cr3100     Cr  0.74528437  0.09204064  0.90401323     1.93200
Cr3101     Cr  0.71457243  0.05354576  0.93891004     1.39100
O3102       O  0.74520366  0.06724453  0.92768526    -1.24500
O3103       O  0.72456667  0.46849316  0.92450977    -0.86800
O3104       O  0.69066084  0.43129773  0.90769140    -0.83800
C3105       C  0.69862928  0.43312094  0.88441657     0.96700
O3106       O  0.72048544  0.42167257  0.87815957    -0.83900
O3107       O  0.77652030  0.41528573  0.88230674    -0.86500
C3108       C  0.79006972  0.43668249  0.88645658     1.01200
O3109       O  0.78852527  0.44833788  0.90829074    -0.79300
O3110       O  0.76084738  0.46791022  0.94855871    -0.79500
C3111       C  0.74356293  0.48002674  0.93529355     1.01100
O3112       O  0.72796785  0.44252949  0.97396604    -0.86800
O3113       O  0.70060423  0.40204052  0.95384565    -0.83900
C3114       C  0.69974273  0.38055138  0.94144386     0.96700
O3115       O  0.71235142  0.37769029  0.91929132    -0.83900
O3116       O  0.76679674  0.37285571  0.92488349    -0.86500
C3117       C  0.78830674  0.37761434  0.93734761     1.01200
O3118       O  0.79749056  0.40053415  0.93635125    -0.79300
O3119       O  0.76362406  0.41755145  0.97378565    -0.79500
C3120       C  0.74529744  0.42911657  0.98574180     1.01100
Cr3121     Cr  0.71364228  0.43506399  0.93892821     1.93700
Cr3122     Cr  0.74409178  0.39798214  0.90209871     1.93200
Cr3123     Cr  0.77494040  0.43258836  0.94070065     1.39100
O3124       O  0.74423923  0.42159384  0.92684390    -1.24500
O3125       O  0.96898434  0.26079950  0.94868889    -0.86800
O3126       O  0.94887399  0.28898979  0.90834419    -0.83800
C3127       C  0.93684466  0.28968291  0.88663712     0.96700
O3128       O  0.91517603  0.27653870  0.88332436    -0.83900
O3129       O  0.92032627  0.22124512  0.87925463    -0.86500
C3130       C  0.93203469  0.19946781  0.88515668     1.01200
O3131       O  0.93076580  0.19134185  0.90842236    -0.79300
O3132       O  0.96856460  0.22441217  0.92487492    -0.79500
C3133       C  0.98063962  0.24304476  0.93562007     1.01100
O3134       O  0.91921531  0.26492894  0.97478671    -0.86800
O3135       O  0.90241959  0.29864720  0.93770178    -0.83900
C3136       C  0.87907791  0.29068040  0.93848764     0.96700
O3137       O  0.87323658  0.26918105  0.92635989    -0.83900
O3138       O  0.87723575  0.21385980  0.92111002    -0.86500
C3139       C  0.88048592  0.20061272  0.94278961     1.01200
O3140       O  0.90211113  0.20123124  0.95495717    -0.79300
O3141       O  0.94305252  0.22849734  0.97484215    -0.79500
C3142       C  0.92992477  0.24606888  0.98667590     1.01100
Cr3143     Cr  0.93384206  0.27559929  0.94131991     1.93700
Cr3144     Cr  0.89760563  0.24520464  0.90363293     1.93200
Cr3145     Cr  0.93509386  0.21415038  0.93974203     1.39100
O3146       O  0.92182259  0.24500724  0.92788579    -1.24500
O3147       O  0.91849010  0.46927356  0.76866547    -0.86800
O3148       O  0.90188775  0.43162121  0.80245829    -0.83800
C3149       C  0.87883938  0.43220898  0.79349800     0.96700
O3150       O  0.87401323  0.42003586  0.77191617    -0.83900
O3151       O  0.87862203  0.41407011  0.71770563    -0.86500
C3152       C  0.88120137  0.43623250  0.70519480     1.01200
O3153       O  0.90247648  0.44890292  0.70610609    -0.79300
O3154       O  0.94320231  0.46959377  0.73297555    -0.79500
C3155       C  0.92988156  0.48134338  0.75039134     1.01100
O3156       O  0.96906127  0.44394576  0.76596229    -0.86800
O3157       O  0.94969412  0.40385590  0.79322752    -0.83900
C3158       C  0.93797368  0.38215821  0.79504383     0.96700
O3159       O  0.91641576  0.37795156  0.78185959    -0.83900
O3160       O  0.92220862  0.37329530  0.72606936    -0.86500
C3161       C  0.93318066  0.37942031  0.70409563     1.01200
O3162       O  0.93192003  0.40281016  0.69617846    -0.79300
O3163       O  0.96992624  0.42048825  0.72922210    -0.79500
C3164       C  0.98118815  0.43059999  0.74878538     1.01100
Cr3165     Cr  0.93376941  0.43616978  0.77992290     1.93700
Cr3166     Cr  0.89903734  0.39738539  0.74943802     1.93200
Cr3167     Cr  0.93587557  0.43435721  0.71876468     1.39100
O3168       O  0.92271311  0.42216980  0.74936392    -1.24500
O3169       O  0.76903647  0.81912218  0.48043410    -0.86800
O3170       O  0.80659785  0.83557707  0.44676912    -0.83800
C3171       C  0.80617604  0.85910609  0.45440718     0.96700
O3172       O  0.81776856  0.86497590  0.47624402    -0.83900
O3173       O  0.82297243  0.86082075  0.03236774    -0.86500
C3174       C  0.80110841  0.85729804  0.04540359     1.01200
O3175       O  0.78890567  0.83584291  0.04364551    -0.79300
O3176       O  0.76930734  0.79546384  0.01688690    -0.79500
C3177       C  0.75755190  0.80890803  0.49973550     1.01100
O3178       O  0.79489992  0.76942468  0.48453384    -0.86800
O3179       O  0.83534343  0.78873585  0.45706287    -0.83900
C3180       C  0.85674166  0.80100946  0.45500884     0.96700
O3181       O  0.86040578  0.82280012  0.46813690    -0.83900
O3182       O  0.86480409  0.81732081  0.02423973    -0.86500
C3183       C  0.85888667  0.80577318  0.04609709     1.01200
O3184       O  0.83554736  0.80709056  0.05402512    -0.79300
O3185       O  0.81927134  0.76962146  0.02031337    -0.79500
C3186       C  0.80870121  0.75773273  0.50161310     1.01100
Cr3187     Cr  0.80251097  0.80430736  0.46988846     1.93700
Cr3188     Cr  0.84042679  0.84041616  0.00024432     1.93200
Cr3189     Cr  0.80433985  0.80301499  0.03097738     1.39100
O3190       O  0.81604884  0.81640162  0.00033768    -1.24500
O3191       O  0.77038438  0.69330817  0.01637162    -0.86800
O3192       O  0.79005148  0.65317825  0.04394900    -0.83800
C3193       C  0.80174683  0.63135807  0.04567618     0.96700
O3194       O  0.82334965  0.62703570  0.03245677    -0.83900
O3195       O  0.81765901  0.62251823  0.47638236    -0.86500
C3196       C  0.80648694  0.62878584  0.45451300     1.01200
O3197       O  0.80815590  0.65208810  0.44650758    -0.79300
O3198       O  0.77029744  0.66920965  0.48001772    -0.79500
C3199       C  0.75850094  0.68004319  0.49894434     1.01100
O3200       O  0.82104714  0.71826636  0.01912975    -0.86800
O3201       O  0.83790357  0.68080262  0.05293132    -0.83900
C3202       C  0.86090201  0.68154770  0.04379574     0.96700
O3203       O  0.86577183  0.66913864  0.02234187    -0.83900
O3204       O  0.86136594  0.66350705  0.46813189    -0.86500
C3205       C  0.85857811  0.68582056  0.45580177     1.01200
O3206       O  0.83707189  0.69826656  0.45661078    -0.79300
O3207       O  0.79634560  0.71848856  0.48366152    -0.79500
C3208       C  0.80960034  0.73022329  0.50104160     1.01100
Cr3209     Cr  0.80585557  0.68536505  0.03048433     1.93700
Cr3210     Cr  0.84081419  0.64645758  0.99999971     1.93200
Cr3211     Cr  0.80394313  0.68344035  0.46930214     1.39100
O3212       O  0.81705559  0.67126022  0.99996946    -1.24500
O3213       O  0.66948124  0.76948524  0.47993697    -0.86800
O3214       O  0.65237152  0.80738141  0.44624602    -0.83800
C3215       C  0.62901291  0.80649938  0.45414327     0.96700
O3216       O  0.62298929  0.81802696  0.47589753    -0.83900
O3217       O  0.62709245  0.82370176  0.03180317    -0.86500
C3218       C  0.63112805  0.80209030  0.04509792     1.01200
O3219       O  0.65294196  0.79035701  0.04377480    -0.79300
O3220       O  0.69293806  0.77018805  0.01659581    -0.79500
C3221       C  0.67980211  0.75811996  0.49937827     1.01100
O3222       O  0.71856063  0.79552553  0.48337228    -0.86800
O3223       O  0.69879814  0.83609790  0.45592020    -0.83900
C3224       C  0.68689725  0.85792353  0.45537177     0.96700
O3225       O  0.66482496  0.86116563  0.46803637    -0.83900
O3226       O  0.66979521  0.86570316  0.02251820    -0.86500
C3227       C  0.68194240  0.86084724  0.04416142     1.01200
O3228       O  0.68139958  0.83775479  0.05310437    -0.79300
O3229       O  0.71886093  0.81999187  0.01945067    -0.79500
C3230       C  0.73034494  0.80917303  0.50033392     1.01100
Cr3231     Cr  0.68367016  0.80317874  0.46909129     1.93700
Cr3232     Cr  0.64713214  0.84103012  0.99967545     1.93200
Cr3233     Cr  0.68546170  0.80563795  0.03050596     1.39100
O3234       O  0.67165890  0.81692288  0.99976011    -1.24500
O3235       O  0.71892972  0.66842235  0.48071115    -0.86800
O3236       O  0.68163633  0.65122159  0.44664803    -0.83800
C3237       C  0.68270768  0.62824134  0.45572340     0.96700
O3238       O  0.67062173  0.62323895  0.47730226    -0.83900
O3239       O  0.66419240  0.62787781  0.03198915    -0.86500
C3240       C  0.68596193  0.63106442  0.04492730     1.01200
O3241       O  0.69801578  0.65271175  0.04429558    -0.79300
O3242       O  0.71863547  0.69307571  0.01667170    -0.79500
C3243       C  0.73074598  0.67969355  0.49926633     1.01100
O3244       O  0.69309668  0.71850209  0.48308011    -0.86800
O3245       O  0.65313435  0.69852845  0.45525490    -0.83900
C3246       C  0.63133133  0.68683498  0.45473300     0.96700
O3247       O  0.62782872  0.66511255  0.46775405    -0.83900
O3248       O  0.62296457  0.67092236  0.02274109    -0.86500
C3249       C  0.62800900  0.68274415  0.04449223     1.01200
O3250       O  0.65112252  0.68204713  0.05332221    -0.79300
O3251       O  0.66919868  0.71952929  0.01963347    -0.79500
C3252       C  0.67979088  0.73066205  0.50023947     1.01100
Cr3253     Cr  0.68567375  0.68316558  0.46912581     1.93700
Cr3254     Cr  0.64737209  0.64782595  0.00018572     1.93200
Cr3255     Cr  0.68319276  0.68574880  0.03078029     1.39100
O3256       O  0.67159504  0.67199355  0.00009040    -1.24500
O3257       O  0.71922805  0.97408587  0.32507406    -0.86800
O3258       O  0.68167391  0.94093567  0.34215551    -0.83800
C3259       C  0.68337821  0.94896398  0.36541448     0.96700
O3260       O  0.67196344  0.97093466  0.37152998    -0.83900
O3261       O  0.66657603  0.52736969  0.36694915    -0.86500
C3262       C  0.68823240  0.54040694  0.36282575     1.01200
O3263       O  0.70008358  0.53840238  0.34110203    -0.79300
O3264       O  0.71920315  0.51003400  0.30081011    -0.79500
C3265       C  0.73104624  0.99289998  0.31431218     1.01100
O3266       O  0.69286618  0.97791068  0.27563791    -0.86800
O3267       O  0.65227505  0.95107264  0.29621048    -0.83900
C3268       C  0.63077353  0.95061247  0.30857278     0.96700
O3269       O  0.62786109  0.96381481  0.33037339    -0.83900
O3270       O  0.62390974  0.51941697  0.32474462    -0.86500
C3271       C  0.62966486  0.54071945  0.31217256     1.01200
O3272       O  0.65312043  0.54839713  0.31234405    -0.79300
O3273       O  0.66904520  0.51378022  0.27558166    -0.79500
C3274       C  0.67977822  0.99557357  0.26394276     1.01100
Cr3275     Cr  0.68549389  0.96377405  0.31083686     1.93700
Cr3276     Cr  0.64874469  0.99519117  0.34752673     1.93200
Cr3277     Cr  0.68429947  0.52495102  0.30857585     1.39100
O3278       O  0.67248410  0.99467017  0.32282069    -1.24500
O3279       O  0.69402405  0.97897357  0.22457528    -0.86800
O3280       O  0.65379565  0.95127534  0.20527445    -0.83800
C3281       C  0.63247438  0.94883553  0.19287606     0.96700
O3282       O  0.62892430  0.96113533  0.17061263    -0.83900
O3283       O  0.62352246  0.51562282  0.17610132    -0.86500
C3284       C  0.62819364  0.53748763  0.18798773     1.01200
O3285       O  0.65106148  0.54678064  0.18677901    -0.79300
O3286       O  0.66860292  0.51335265  0.22428142    -0.79500
C3287       C  0.68006116  0.99587285  0.23638581     1.01100
O3288       O  0.71942576  0.97545022  0.17467165    -0.86800
O3289       O  0.68227012  0.94115957  0.15840243    -0.83900
C3290       C  0.68307454  0.94893723  0.13495193     0.96700
O3291       O  0.67143515  0.97066054  0.12887808    -0.83900
O3292       O  0.66522399  0.52582678  0.13315039    -0.86500
C3293       C  0.68670535  0.53933050  0.13707371     1.01200
O3294       O  0.69866860  0.53780038  0.15868419    -0.79300
O3295       O  0.71914096  0.51094093  0.19880923    -0.79500
C3296       C  0.73114266  0.99423282  0.18565261     1.01100
Cr3297     Cr  0.68636879  0.96426789  0.18966475     1.93700
Cr3298     Cr  0.64823882  0.99372741  0.15330597     1.93200
Cr3299     Cr  0.68338559  0.52455360  0.19113409     1.39100
O3300       O  0.67236628  0.99442599  0.17761547    -1.24500
O3301       O  0.79603624  0.97805917  0.27588583    -0.86800
O3302       O  0.83641673  0.95060988  0.29554969    -0.83800
C3303       C  0.85823142  0.94906134  0.30719307     0.96700
O3304       O  0.86231431  0.96238654  0.32873251    -0.83900
O3305       O  0.86635608  0.51845584  0.32248258    -0.86500
C3306       C  0.85997724  0.54034938  0.31129126     1.01200
O3307       O  0.83658000  0.54821673  0.31286562    -0.79300
O3308       O  0.81966610  0.51444395  0.27542555    -0.79500
C3309       C  0.80917712  0.99547986  0.26390599     1.01100
O3310       O  0.77072771  0.97505794  0.32635627    -0.86800
O3311       O  0.80852573  0.94157974  0.34340009    -0.83900
C3312       C  0.80771276  0.95073177  0.36639700     0.96700
O3313       O  0.82000365  0.97226432  0.37120486    -0.83900
O3314       O  0.82549945  0.52680267  0.36622551    -0.86500
C3315       C  0.80319767  0.53920487  0.36357282     1.01200
O3316       O  0.79056015  0.53817179  0.34223932    -0.79300
O3317       O  0.77030225  0.51073380  0.30164364    -0.79500
C3318       C  0.75863897  0.99336911  0.31491861     1.01100
Cr3319     Cr  0.80394910  0.96397261  0.31131190     1.93700
Cr3320     Cr  0.84252566  0.99480076  0.34609738     1.93200
Cr3321     Cr  0.80534807  0.52524788  0.30904689     1.39100
O3322       O  0.81767694  0.99465348  0.32250529    -1.24500
O3323       O  0.82090578  0.51363942  0.22412528    -0.86800
O3324       O  0.83826388  0.54756187  0.18667241    -0.83800
C3325       C  0.86131612  0.53856164  0.18771487     0.96700
O3326       O  0.86647564  0.51689473  0.17568219    -0.83900
O3327       O  0.86183106  0.96261032  0.16981837    -0.86500
C3328       C  0.85866614  0.94962632  0.19158621     1.01200
O3329       O  0.83690086  0.94993362  0.20349822    -0.79300
O3330       O  0.79662824  0.97771425  0.22420910    -0.79500
C3331       C  0.80965472  0.99518191  0.23618961     1.01100
O3332       O  0.77098069  0.51111609  0.19847569    -0.86800
O3333       O  0.79115293  0.53863798  0.15802592    -0.83900
C3334       C  0.80287023  0.53905925  0.13617176     0.96700
O3335       O  0.82471376  0.52612730  0.13274108    -0.83900
O3336       O  0.81845153  0.97169931  0.12858804    -0.86500
C3337       C  0.80644403  0.95005867  0.13369485     1.01200
O3338       O  0.80758819  0.94105763  0.15669892    -0.79300
O3339       O  0.77056625  0.97528866  0.17449033    -0.79500
C3340       C  0.75884563  0.99410005  0.18561122     1.01100
Cr3341     Cr  0.80636469  0.52505681  0.19077107     1.93700
Cr3342     Cr  0.84167318  0.99431699  0.15288035     1.93200
Cr3343     Cr  0.80397540  0.96368834  0.18871408     1.39100
O3344       O  0.81763278  0.99440083  0.17725201    -1.24500
O3345       O  0.97823265  0.69333532  0.27565903    -0.86800
O3346       O  0.95101175  0.65267228  0.29576455    -0.83800
C3347       C  0.95015407  0.63120219  0.30817968     0.96700
O3348       O  0.96285751  0.62832575  0.33027238    -0.83900
O3349       O  0.51674463  0.62388271  0.32480390    -0.86500
C3350       C  0.53827020  0.62846959  0.31235099     1.01200
O3351       O  0.54737053  0.65146021  0.31297514    -0.79300
O3352       O  0.51325427  0.66838704  0.27598335    -0.79500
C3353       C  0.99540356  0.67967646  0.26391842     1.01100
O3354       O  0.97431473  0.71952273  0.32478704    -0.86800
O3355       O  0.94111554  0.68170343  0.34206255    -0.83900
C3356       C  0.94902325  0.68300062  0.36541812     0.96700
O3357       O  0.97101502  0.67184977  0.37151985    -0.83900
O3358       O  0.52656880  0.66659621  0.36709918    -0.86500
C3359       C  0.54009690  0.68798116  0.36274723     1.01200
O3360       O  0.53855133  0.69948707  0.34089204    -0.79300
O3361       O  0.51078855  0.71906813  0.30118978    -0.79500
C3362       C  0.99367755  0.73090515  0.31454353     1.01100
Cr3363     Cr  0.96385847  0.68578879  0.31065681     1.93700
Cr3364     Cr  0.99459097  0.64866611  0.34737794     1.93200
Cr3365     Cr  0.52477862  0.68361328  0.30880048     1.39100
O3366       O  0.99455018  0.67244649  0.32274328    -1.24500
O3367       O  0.97499879  0.71982847  0.17531942    -0.86800
O3368       O  0.94108284  0.68251945  0.15829411    -0.83800
C3369       C  0.94876877  0.68261867  0.13481864     0.96700
O3370       O  0.97045821  0.67058852  0.12903144    -0.83900
O3371       O  0.52642200  0.66557837  0.13357511    -0.86500
C3372       C  0.53947328  0.68737897  0.13734707     1.01200
O3373       O  0.53790799  0.69934457  0.15898330    -0.79300
O3374       O  0.51107929  0.71913521  0.19926096    -0.79500
C3375       C  0.99436346  0.73104926  0.18576790     1.01100
O3376       O  0.97847456  0.69356175  0.22467597    -0.86800
O3377       O  0.95087504  0.65340533  0.20485584    -0.83900
C3378       C  0.94914103  0.63177760  0.19281016     0.96700
O3379       O  0.96237417  0.62788711  0.17112485    -0.83900
O3380       O  0.51822942  0.62341988  0.17669514    -0.86500
C3381       C  0.54002360  0.62909948  0.18843177     1.01200
O3382       O  0.54796891  0.65244390  0.18747511    -0.79300
O3383       O  0.51393715  0.66898794  0.22471677    -0.79500
C3384       C  0.99558996  0.67983012  0.23641628     1.01100
Cr3385     Cr  0.96406632  0.68621187  0.18966201     1.93700
Cr3386     Cr  0.99448773  0.64792241  0.15361434     1.93200
Cr3387     Cr  0.52496629  0.68389320  0.19155998     1.39100
O3388       O  0.99451837  0.67232557  0.17775449    -1.24500
O3389       O  0.97496687  0.82035687  0.22446419    -0.86800
O3390       O  0.94080121  0.83641255  0.18684531    -0.83800
C3391       C  0.94869192  0.85972657  0.18808785     0.96700
O3392       O  0.97028314  0.86577627  0.17646451    -0.83900
O3393       O  0.52521855  0.86218838  0.17067207    -0.86500
C3394       C  0.53898773  0.85861550  0.19195909     1.01200
O3395       O  0.53908094  0.83664126  0.20350764    -0.79300
O3396       O  0.51146853  0.79663703  0.22451575    -0.79500
C3397       C  0.99380633  0.80951832  0.23638178     1.01100
O3398       O  0.97839793  0.77045588  0.19935726    -0.86800
O3399       O  0.95083982  0.78973020  0.15844935    -0.83900
C3400       C  0.94997067  0.80171438  0.13672006     0.96700
O3401       O  0.96251995  0.82376944  0.13346119    -0.83900
O3402       O  0.51696854  0.81922364  0.12879947    -0.86500
C3403       C  0.53864377  0.80702393  0.13362761     1.01200
O3404       O  0.54759825  0.80728319  0.15667920    -0.79300
O3405       O  0.51433319  0.76984652  0.17504234    -0.79500
C3406       C  0.99532043  0.75840736  0.18578928     1.01100
Cr3407     Cr  0.96399661  0.80531458  0.19123639     1.93700
Cr3408     Cr  0.99384615  0.84162184  0.15353326     1.93200
Cr3409     Cr  0.52537051  0.80366823  0.18889851     1.39100
O3410       O  0.99451266  0.81712992  0.17754058    -1.24500
O3411       O  0.51069940  0.79568623  0.27605641    -0.86800
O3412       O  0.53863415  0.83546522  0.29591464    -0.83800
C3413       C  0.54075601  0.85700497  0.30796455     0.96700
O3414       O  0.52809673  0.86095337  0.32988148    -0.83900
O3415       O  0.97287734  0.86628909  0.32348668    -0.86500
C3416       C  0.95098558  0.86143971  0.31197224     1.01200
O3417       O  0.94154017  0.83867099  0.31364732    -0.79300
O3418       O  0.97482585  0.82054592  0.27586927    -0.79500
C3419       C  0.99345243  0.80919896  0.26408529     1.01100
O3420       O  0.51381481  0.76961108  0.32567212    -0.86800
O3421       O  0.54762856  0.80704027  0.34347323    -0.83900
C3422       C  0.53874176  0.80678993  0.36660787     0.96700
O3423       O  0.51728181  0.81905352  0.37162969    -0.83900
O3424       O  0.96254019  0.82505396  0.36689376    -0.86500
C3425       C  0.94955874  0.80319334  0.36372790     1.01200
O3426       O  0.94992877  0.79130727  0.34200160    -0.79300
O3427       O  0.97698621  0.77060432  0.30192332    -0.79500
C3428       C  0.99432883  0.75833910  0.31494628     1.01100
Cr3429     Cr  0.52514570  0.80302089  0.31135394     1.93700
Cr3430     Cr  0.99474400  0.84167263  0.34684962     1.93200
Cr3431     Cr  0.96344615  0.80625296  0.30931194     1.39100
O3432       O  0.99431699  0.81712682  0.32291999    -1.24500
O3433       O  0.52010734  0.76108802  0.05127928    -0.86800
O3434       O  0.54002000  0.78878421  0.09114615    -0.83800
C3435       C  0.55210305  0.79055267  0.11269597     0.96700
O3436       O  0.57404764  0.77761373  0.11636378    -0.83900
O3437       O  0.56779308  0.72269192  0.12157166    -0.86500
C3438       C  0.55616423  0.70081123  0.11664977     1.01200
O3439       O  0.55749304  0.69162167  0.09370581    -0.79300
O3440       O  0.51998329  0.72553465  0.07638053    -0.79500
C3441       C  0.50818626  0.74406338  0.06493994     1.01100
O3442       O  0.57020315  0.76334201  0.02569233    -0.86800
O3443       O  0.58741898  0.79765504  0.06271027    -0.83900
C3444       C  0.61047543  0.78860077  0.06171177     0.96700
O3445       O  0.61556229  0.76683048  0.07358200    -0.83900
O3446       O  0.61077854  0.71194790  0.08008068    -0.86500
C3447       C  0.60716033  0.69912353  0.05812776     1.01200
O3448       O  0.58556490  0.70078912  0.04613801    -0.79300
O3449       O  0.54529436  0.72777709  0.02608566    -0.79500
C3450       C  0.55890708  0.74472181  0.01401665     1.01100
Cr3451     Cr  0.55544435  0.77514998  0.05870328     1.93700
Cr3452     Cr  0.59102344  0.74475590  0.09689059     1.93200
Cr3453     Cr  0.55307214  0.71402276  0.06159245     1.39100
O3454       O  0.56683839  0.74465996  0.07273526    -1.24500
O3455       O  0.56937736  0.51909511  0.27035870    -0.86800
O3456       O  0.58611365  0.55682406  0.30382763    -0.83800
C3457       C  0.60957397  0.55625937  0.29603794     0.96700
O3458       O  0.61533343  0.56790674  0.27419820    -0.83900
O3459       O  0.61099094  0.57270579  0.21798554    -0.86500
C3460       C  0.60736307  0.55083949  0.20489643     1.01200
O3461       O  0.58582763  0.53878629  0.20665008    -0.79300
O3462       O  0.54563448  0.51932272  0.23389606    -0.74700
C3463       C  0.55927054  0.50754577  0.25101078     1.01100
O3464       O  0.51980234  0.54510741  0.26634540    -0.86800
O3465       O  0.53927382  0.58584750  0.29367356    -0.83900
C3466       C  0.55139608  0.60740655  0.29540716     0.96700
O3467       O  0.57316788  0.61093974  0.28220984    -0.83900
O3468       O  0.56774418  0.61496900  0.22613371    -0.86500
C3469       C  0.55598162  0.60913628  0.20438559     1.01200
O3470       O  0.55699428  0.58571836  0.19649397    -0.79300
O3471       O  0.51993654  0.56952290  0.23043954    -0.79500
C3472       C  0.50808881  0.55890306  0.24928202     1.01100
Cr3473     Cr  0.55473650  0.55279201  0.28082459     1.93700
Cr3474     Cr  0.59072841  0.59051287  0.25010871     1.93200
Cr3475     Cr  0.55313473  0.55441387  0.21962746     1.39100
O3476       O  0.56666174  0.56618289  0.25020896    -1.24500
O3477       O  0.76346606  0.57070570  0.02611607    -0.86800
O3478       O  0.79726483  0.58791684  0.06371899    -0.83800
C3479       C  0.78827394  0.61096938  0.06260378     0.96700
O3480       O  0.76658493  0.61618156  0.07453205    -0.83900
O3481       O  0.71234082  0.61186229  0.08052970    -0.86500
C3482       C  0.69947903  0.60868525  0.05869271     1.01200
O3483       O  0.69987882  0.58692032  0.04676875    -0.79300
O3484       O  0.72739757  0.54649999  0.02614017    -0.79500
C3485       C  0.74509753  0.55924957  0.01419440     1.01100
O3486       O  0.76077670  0.52077051  0.05171340    -0.86800
O3487       O  0.78834427  0.54083280  0.09221607    -0.83900
C3488       C  0.78890074  0.55272568  0.11398721     0.96700
O3489       O  0.77581762  0.57449451  0.11739445    -0.83900
O3490       O  0.72148795  0.56846717  0.12175420    -0.86500
C3491       C  0.69986594  0.55649017  0.11660089     1.01200
O3492       O  0.69078802  0.55782165  0.09363834    -0.79300
O3493       O  0.72465288  0.52047559  0.07594571    -0.79500
C3494       C  0.74334120  0.50873159  0.06469834     1.01100
Cr3495     Cr  0.77478034  0.55607685  0.05946775     1.93700
Cr3496     Cr  0.74403672  0.59166846  0.09748225     1.93200
Cr3497     Cr  0.71334906  0.55397553  0.06164469     1.39100
O3498       O  0.74405258  0.56754310  0.07317694    -1.24500
O3499       O  0.96888371  0.72520205  0.07529252    -0.86800
O3500       O  0.93245922  0.69054572  0.09130562    -0.83800
C3501       C  0.93267111  0.69818917  0.11479889     0.96700
O3502       O  0.92010631  0.71950771  0.12073020    -0.83900
O3503       O  0.91462877  0.77474079  0.11737894    -0.86500
C3504       C  0.93634976  0.78792723  0.11433960     1.01200
O3505       O  0.94826950  0.78791065  0.09258535    -0.79300
O3506       O  0.96867734  0.76151448  0.05145338    -0.79500
C3507       C  0.98062646  0.74408397  0.06459296     1.01100
O3508       O  0.94332725  0.72899822  0.02538448    -0.86800
O3509       O  0.90319251  0.70062151  0.04471306    -0.83900
C3510       C  0.88159622  0.69859649  0.05679833     0.96700
O3511       O  0.87760194  0.71166862  0.07850517    -0.83900
O3512       O  0.87285850  0.76779138  0.07362763    -0.86500
C3513       C  0.87860748  0.78978061  0.06222544     1.01200
O3514       O  0.90180026  0.79797291  0.06378634    -0.79300
O3515       O  0.91887010  0.76506132  0.02571249    -0.79500
C3516       C  0.92983067  0.74637050  0.01370796     1.01100
Cr3517     Cr  0.93583739  0.71404815  0.06023507     1.93700
Cr3518     Cr  0.89733815  0.74355710  0.09638582     1.93200
Cr3519     Cr  0.93333803  0.77531989  0.05941110     1.39100
O3520       O  0.92178916  0.74428534  0.07236648    -1.24500
O3521       O  0.76094357  0.96884343  0.05122350    -0.86800
O3522       O  0.78779569  0.94874595  0.09152778    -0.83800
C3523       C  0.78945560  0.93674381  0.11311280     0.96700
O3524       O  0.77621746  0.91505373  0.11691528    -0.83900
O3525       O  0.72052927  0.92138348  0.12133196    -0.86500
C3526       C  0.69879529  0.93297086  0.11528775     1.01200
O3527       O  0.69082552  0.93182782  0.09191236    -0.79300
O3528       O  0.72473005  0.96917053  0.07533449    -0.79500
C3529       C  0.74357993  0.98089829  0.06449341     1.01100
O3530       O  0.76386674  0.91836005  0.02580022    -0.86800
O3531       O  0.79713423  0.90099618  0.06357291    -0.83900
C3532       C  0.78787135  0.87809572  0.06228226     0.96700
O3533       O  0.76602459  0.87330964  0.07404951    -0.83900
O3534       O  0.71101473  0.87839972  0.07975522    -0.86500
C3535       C  0.69858914  0.88177324  0.05750122     1.01200
O3536       O  0.70091772  0.90310305  0.04504765    -0.79300
O3537       O  0.72835539  0.94352992  0.02559071    -0.79500
C3538       C  0.74543988  0.92974344  0.01385072     1.01100
Cr3539     Cr  0.77481172  0.93323642  0.05901856     1.93700
Cr3540     Cr  0.74356346  0.89811018  0.09700231     1.93200
Cr3541     Cr  0.71377258  0.93589937  0.06053390     1.39100
O3542       O  0.74405709  0.92214870  0.07260609    -1.24500
O3543       O  0.96898228  0.54641214  0.26671743    -0.86800
O3544       O  0.94883328  0.58715150  0.29385300    -0.83800
C3545       C  0.93646833  0.60871238  0.29460486     0.96700
O3546       O  0.91432910  0.61160772  0.28194539    -0.83900
O3547       O  0.91985404  0.61601176  0.22753713    -0.86500
C3548       C  0.93218160  0.61105785  0.20600620     1.01200
O3549       O  0.93146330  0.58799736  0.19701401    -0.79300
O3550       O  0.96886589  0.57119037  0.23102783    -0.79500
C3551       C  0.98078588  0.55966917  0.24937473     1.01100
O3552       O  0.91947650  0.52063947  0.27010115    -0.86800
O3553       O  0.90248276  0.55840001  0.30361859    -0.83900
C3554       C  0.87926195  0.55659381  0.29546591     0.96700
O3555       O  0.87312477  0.56786773  0.27359225    -0.83900
O3556       O  0.87758399  0.57365924  0.21785586    -0.86500
C3557       C  0.88180435  0.55202221  0.20462371     1.01200
O3558       O  0.90361563  0.54030218  0.20630331    -0.79300
O3559       O  0.94374832  0.52083807  0.23398192    -0.79500
C3560       C  0.93034109  0.50889730  0.25119755     1.01100
Cr3561     Cr  0.93388663  0.55413231  0.28091816     1.93700
Cr3562     Cr  0.89718531  0.59117677  0.25021405     1.93200
Cr3563     Cr  0.93589419  0.55610585  0.21971418     1.39100
O3564       O  0.92193452  0.56743597  0.25026582    -1.24500
O3565       O  0.57062867  0.96901277  0.23129474    -0.86800
O3566       O  0.58870136  0.93159073  0.19724354    -0.83800
C3567       C  0.61171597  0.93224071  0.20624109     0.96700
O3568       O  0.61659931  0.92025144  0.22792347    -0.83900
O3569       O  0.61209067  0.91473762  0.28205745    -0.86500
C3570       C  0.60845943  0.93637664  0.29530426     1.01200
O3571       O  0.58637254  0.94775528  0.29531234    -0.79300
O3572       O  0.54639691  0.96811940  0.26753852    -0.79500
C3573       C  0.55987589  0.98020841  0.25060012     1.01100
O3574       O  0.52115822  0.94303958  0.23330441    -0.86800
O3575       O  0.54160345  0.90285269  0.20574360    -0.83900
C3576       C  0.55308719  0.88080501  0.20561497     0.96700
O3577       O  0.57475504  0.87721821  0.21881015    -0.83900
O3578       O  0.56936639  0.87274419  0.27298740    -0.86500
C3579       C  0.55727164  0.87767614  0.29459164     1.01200
O3580       O  0.55768315  0.90070885  0.30356471    -0.79300
O3581       O  0.51999677  0.91897472  0.26966424    -0.79500
C3582       C  0.50886108  0.92984815  0.25035110     1.01100
Cr3583     Cr  0.55658165  0.93553620  0.21965415     1.93700
Cr3584     Cr  0.59207069  0.89735201  0.25044680     1.93200
Cr3585     Cr  0.55369241  0.93279459  0.28127909     1.39100
O3586       O  0.56770195  0.92156732  0.25047476    -1.24500
O3587       O  0.57006775  0.76341072  0.47445648    -0.86800
O3588       O  0.58590440  0.79827784  0.43765156    -0.83800
C3589       C  0.60944435  0.79070848  0.43827362     0.96700
O3590       O  0.61577173  0.76929655  0.42624970    -0.83900
O3591       O  0.61233020  0.71430310  0.41968703    -0.86500
C3592       C  0.60910575  0.70072933  0.44113329     1.01200
O3593       O  0.58731418  0.70054952  0.45291694    -0.79300
O3594       O  0.54658737  0.72683863  0.47401928    -0.79500
C3595       C  0.55921795  0.74452497  0.48613704     1.01100
O3596       O  0.52029439  0.75985174  0.44914923    -0.86800
O3597       O  0.53949407  0.78787012  0.40875354    -0.83900
C3598       C  0.55194402  0.79037634  0.38743205     0.96700
O3599       O  0.57420636  0.77824000  0.38383548    -0.83900
O3600       O  0.56882662  0.72332877  0.37832021    -0.86500
C3601       C  0.55722440  0.70136746  0.38315428     1.01200
O3602       O  0.55891217  0.69187737  0.40590395    -0.79300
O3603       O  0.52048636  0.72441154  0.42402474    -0.79500
C3604       C  0.50850215  0.74282498  0.43549746     1.01100
Cr3605     Cr  0.55502563  0.77476539  0.44142744     1.93700
Cr3606     Cr  0.59167158  0.74604507  0.40309752     1.93200
Cr3607     Cr  0.55430219  0.71362592  0.43821881     1.39100
O3608       O  0.56741331  0.74479883  0.42731318    -1.24500
O3609       O  0.76124723  0.51981114  0.44796245    -0.86800
O3610       O  0.78870997  0.54009373  0.40752590    -0.83800
C3611       C  0.78970868  0.55271878  0.38618340     0.96700
O3612       O  0.77729361  0.57502325  0.38352550    -0.83900
O3613       O  0.72307802  0.56943548  0.37864456    -0.86500
C3614       C  0.70144956  0.55739138  0.38349009     1.01200
O3615       O  0.69226993  0.55846340  0.40645918    -0.79300
O3616       O  0.72550108  0.52034125  0.42329822    -0.79500
C3617       C  0.74374794  0.50818958  0.43473966     1.01100
O3618       O  0.76489453  0.56905604  0.47440800    -0.86800
O3619       O  0.79852457  0.58616198  0.43690923    -0.83900
C3620       C  0.79052178  0.60952364  0.43851233     0.96700
O3621       O  0.76870310  0.61587271  0.42723455    -0.83900
O3622       O  0.71295460  0.61171097  0.42092180    -0.86500
C3623       C  0.69974067  0.60767822  0.44251776     1.01200
O3624       O  0.70153171  0.58599731  0.45438503    -0.79300
O3625       O  0.72853192  0.54529656  0.47397065    -0.79500
C3626       C  0.74588098  0.55839912  0.48608422     1.01100
Cr3627     Cr  0.77573902  0.55484611  0.44071706     1.93700
Cr3628     Cr  0.74545317  0.59201537  0.40374685     1.93200
Cr3629     Cr  0.71459219  0.55352660  0.43852544     1.39100
O3630       O  0.74527228  0.56719215  0.42739776    -1.24500
O3631       O  0.72464615  0.96866006  0.42485844    -0.86800
O3632       O  0.69142763  0.93094791  0.40803588    -0.83800
C3633       C  0.69953401  0.93270247  0.38482320     0.96700
O3634       O  0.72151339  0.92129035  0.37880286    -0.83900
O3635       O  0.77764736  0.91590304  0.38316692    -0.86500
C3636       C  0.79073398  0.93758385  0.38716577     1.01200
O3637       O  0.78878078  0.94952433  0.40885556    -0.79300
O3638       O  0.76061647  0.96868141  0.44924833    -0.79500
C3639       C  0.74342767  0.98048619  0.43566720     1.01100
O3640       O  0.72814771  0.94275663  0.47447735    -0.86800
O3641       O  0.70134862  0.90193316  0.45422347    -0.83900
C3642       C  0.70096995  0.88032415  0.44199585     0.96700
O3643       O  0.71423220  0.87731695  0.42023485    -0.83900
O3644       O  0.76950695  0.87337022  0.42560297    -0.86500
C3645       C  0.79084018  0.87912511  0.43806990     1.01200
O3646       O  0.79870586  0.90252282  0.43757431    -0.79300
O3647       O  0.76435417  0.91858889  0.47453441    -0.79500
C3648       C  0.74551691  0.92946247  0.48633260     1.01100
Cr3649     Cr  0.71417503  0.93506022  0.43934120     1.93700
Cr3650     Cr  0.74564633  0.89809102  0.40296905     1.93200
Cr3651     Cr  0.77541916  0.93377483  0.44146025     1.39100
O3652       O  0.74509923  0.92192397  0.42757021    -1.24500
O3653       O  0.96833906  0.76151175  0.44790889    -0.86800
O3654       O  0.94755003  0.78915055  0.40784557    -0.83800
C3655       C  0.93591013  0.78922184  0.38597106     0.96700
O3656       O  0.91463392  0.77546983  0.38246912    -0.83900
O3657       O  0.92105636  0.72035101  0.37869534    -0.86500
C3658       C  0.93276378  0.69870043  0.38488927     1.01200
O3659       O  0.93136998  0.69076967  0.40823280    -0.79300
O3660       O  0.96855881  0.72476991  0.42447850    -0.79500
C3661       C  0.98032515  0.74364539  0.43518538     1.01100
O3662       O  0.91827553  0.76445224  0.47407170    -0.86800
O3663       O  0.90026093  0.79749075  0.43658110    -0.83900
C3664       C  0.87745475  0.78806176  0.43774533     0.96700
O3665       O  0.87276870  0.76640017  0.42553891    -0.83900
O3666       O  0.87793994  0.71197273  0.42015387    -0.86500
C3667       C  0.88100293  0.69953659  0.44231271     1.01200
O3668       O  0.90246570  0.70081675  0.45472933    -0.79300
O3669       O  0.94315637  0.72874162  0.47426111    -0.79500
C3670       C  0.92970042  0.74606990  0.48604029     1.01100
Cr3671     Cr  0.93265330  0.77543577  0.44059728     1.93700
Cr3672     Cr  0.89769514  0.74370150  0.40275793     1.93200
Cr3673     Cr  0.93534142  0.71395169  0.43938478     1.39100
O3674       O  0.92163388  0.74439793  0.42719332    -1.24500
O3675       O  0.91855056  0.96912876  0.26891694    -0.86800
O3676       O  0.90197835  0.93142882  0.30268707    -0.83800
C3677       C  0.87893727  0.93225486  0.29375385     0.96700
O3678       O  0.87400215  0.92016132  0.27213204    -0.83900
O3679       O  0.87849689  0.91416787  0.21785483    -0.86500
C3680       C  0.88118507  0.93628713  0.20530232     1.01200
O3681       O  0.90253682  0.94883346  0.20615158    -0.79300
O3682       O  0.94319568  0.96943524  0.23316706    -0.79500
C3683       C  0.92991649  0.98119054  0.25062169     1.01100
O3684       O  0.96904630  0.94374708  0.26610807    -0.86800
O3685       O  0.94961198  0.90355476  0.29321853    -0.83900
C3686       C  0.93777968  0.88191156  0.29500299     0.96700
O3687       O  0.91617950  0.87783049  0.28186965    -0.83900
O3688       O  0.92196233  0.87319043  0.22610752    -0.86500
C3689       C  0.93310724  0.87929238  0.20420402     1.01200
O3690       O  0.93194204  0.90268619  0.19628727    -0.79300
O3691       O  0.96992185  0.92027686  0.22939455    -0.79500
C3692       C  0.98117708  0.93036621  0.24897415     1.01100
Cr3693     Cr  0.93377736  0.93595992  0.28006131     1.93700
Cr3694     Cr  0.89887354  0.89737607  0.24953313     1.93200
Cr3695     Cr  0.93588773  0.93421665  0.21889340     1.39100
O3696       O  0.92265883  0.92205032  0.24947369    -1.24500
O3697       O  0.76903126  0.81931269  0.98048697    -0.86800
O3698       O  0.80652570  0.83569084  0.94671673    -0.83800
C3699       C  0.80614630  0.85922261  0.95434559     0.96700
O3700       O  0.81784840  0.86506457  0.97614141    -0.83900
O3701       O  0.82274104  0.86069706  0.53249322    -0.86500
C3702       C  0.80081192  0.85718253  0.54544350     1.01200
O3703       O  0.78859816  0.83574381  0.54356918    -0.79300
O3704       O  0.76929788  0.79524185  0.51681314    -0.79500
C3705       C  0.75754085  0.80906775  0.99976560     1.01100
O3706       O  0.79474640  0.76952622  0.98447350    -0.86800
O3707       O  0.83524973  0.78881077  0.95697043    -0.83900
C3708       C  0.85668900  0.80102223  0.95491002     0.96700
O3709       O  0.86043959  0.82278771  0.96804914    -0.83900
O3710       O  0.86462916  0.81722128  0.52425854    -0.86500
C3711       C  0.85868728  0.80573226  0.54612291     1.01200
O3712       O  0.83537188  0.80721413  0.55409791    -0.79300
O3713       O  0.81934306  0.76962178  0.52043788    -0.79500
C3714       C  0.80854621  0.75776994  0.00150068     1.01100
Cr3715     Cr  0.80246074  0.80443402  0.96987368     1.93700
Cr3716     Cr  0.84030649  0.84035724  0.50033547     1.93200
Cr3717     Cr  0.80422839  0.80295424  0.53100319     1.39100
O3718       O  0.81597390  0.81632694  0.50037176    -1.24500
O3719       O  0.77049415  0.69326082  0.51631121    -0.86800
O3720       O  0.79013157  0.65291398  0.54359550    -0.83800
C3721       C  0.80186382  0.63111022  0.54529574     0.96700
O3722       O  0.82349835  0.62686699  0.53212107    -0.83900
O3723       O  0.81758518  0.62234325  0.97674474    -0.86500
C3724       C  0.80640529  0.62846683  0.95484333     1.01200
O3725       O  0.80795834  0.65175561  0.94675605    -0.79300
O3726       O  0.77016094  0.66899879  0.98025202    -0.79500
C3727       C  0.75837232  0.68002378  0.99906142     1.01100
O3728       O  0.82111627  0.71821755  0.51931365    -0.86800
O3729       O  0.83795833  0.68049638  0.55285720    -0.83900
C3730       C  0.86095400  0.68136129  0.54372868     0.96700
O3731       O  0.86587375  0.66903556  0.52223383    -0.83900
O3732       O  0.86119943  0.66344284  0.96826815    -0.86500
C3733       C  0.85835218  0.68569376  0.95581864     1.01200
O3734       O  0.83680404  0.69806834  0.95654703    -0.79300
O3735       O  0.79613471  0.71843551  0.98358300    -0.79500
C3736       C  0.80943512  0.73023582  0.00090258     1.01100
Cr3737     Cr  0.80594057  0.68520950  0.53040739     1.93700
Cr3738     Cr  0.84093833  0.64645069  0.49976641     1.93200
Cr3739     Cr  0.80373830  0.68324802  0.96939577     1.39100
O3740       O  0.81719769  0.67128169  0.49983162    -1.24500
O3741       O  0.66938799  0.76959266  0.97991383    -0.86800
O3742       O  0.65207613  0.80748330  0.94639817    -0.83800
C3743       C  0.62873162  0.80663479  0.95438319     0.96700
O3744       O  0.62280829  0.81820715  0.97614775    -0.83900
O3745       O  0.62701175  0.82357641  0.53154596    -0.86500
C3746       C  0.63106242  0.80202867  0.54492878     1.01200
O3747       O  0.65292539  0.79036177  0.54375175    -0.79300
O3748       O  0.69296160  0.77015006  0.51667538    -0.79500
C3749       C  0.67972067  0.75818683  0.99931755     1.01100
O3750       O  0.71851052  0.79571950  0.98330334    -0.86800
O3751       O  0.69860244  0.83624833  0.95590392    -0.83900
C3752       C  0.68672164  0.85808201  0.95541237     0.96700
O3753       O  0.66468740  0.86131814  0.96814609    -0.83900
O3754       O  0.66962960  0.86564718  0.52243995    -0.86500
C3755       C  0.68174993  0.86083724  0.54410797     1.01200
O3756       O  0.68135837  0.83773909  0.55302802    -0.79300
O3757       O  0.71889469  0.81994372  0.51941702    -0.79500
C3758       C  0.73030983  0.80929206  0.00033404     1.01100
Cr3759     Cr  0.68352472  0.80331505  0.96910145     1.93700
Cr3760     Cr  0.64715592  0.84089965  0.49950356     1.93200
Cr3761     Cr  0.68547168  0.80561397  0.53048814     1.39100
O3762       O  0.67172173  0.81683420  0.49970001    -1.24500
O3763       O  0.71878268  0.66848034  0.98079651    -0.86800
O3764       O  0.68147790  0.65079538  0.94706661    -0.83800
C3765       C  0.68258113  0.62786579  0.95629582     0.96700
O3766       O  0.67046595  0.62301158  0.97789881    -0.83900
O3767       O  0.66409739  0.62765125  0.53136826    -0.86500
C3768       C  0.68585124  0.63076069  0.54436058     1.01200
O3769       O  0.69782298  0.65244559  0.54398625    -0.79300
O3770       O  0.71871968  0.69279754  0.51674729    -0.79500
C3771       C  0.73062287  0.67982536  0.99929388     1.01100
O3772       O  0.69270257  0.71847839  0.98291777    -0.86800
O3773       O  0.65274228  0.69815509  0.95539318    -0.83900
C3774       C  0.63086574  0.68659332  0.95518298     0.96700
O3775       O  0.62742900  0.66495007  0.96837878    -0.83900
O3776       O  0.62285754  0.67090410  0.52213009    -0.86500
C3777       C  0.62779844  0.68266317  0.54394694     1.01200
O3778       O  0.65086660  0.68183444  0.55291044    -0.79300
O3779       O  0.66928021  0.71941959  0.51958184    -0.79500
C3780       C  0.67958999  0.73071017  0.00018439     1.01100
Cr3781     Cr  0.68539972  0.68298094  0.96926215     1.93700
Cr3782     Cr  0.64744465  0.64786387  0.49961374     1.93200
Cr3783     Cr  0.68313158  0.68555625  0.53061612     1.39100
O3784       O  0.67168216  0.67200798  0.49979787    -1.24500
O3785       O  0.71905522  0.97425231  0.82545354    -0.86800
O3786       O  0.68124495  0.94111605  0.84222399    -0.83800
C3787       C  0.68306666  0.94916102  0.86546024     0.96700
O3788       O  0.67172016  0.97117367  0.87155740    -0.83900
O3789       O  0.66609074  0.52754717  0.86716789    -0.86500
C3790       C  0.68792656  0.54034522  0.86329258     1.01200
O3791       O  0.69991000  0.53835692  0.84165573    -0.79300
O3792       O  0.71899196  0.51052688  0.80107206    -0.79500
C3793       C  0.73093160  0.99304706  0.81470519     1.01100
O3794       O  0.69314436  0.97802817  0.77583068    -0.86800
O3795       O  0.65216049  0.95137135  0.79613435    -0.83900
C3796       C  0.63061500  0.95091333  0.80845404     0.96700
O3797       O  0.62767353  0.96411323  0.83025862    -0.83900
O3798       O  0.62366453  0.51966825  0.82474952    -0.86500
C3799       C  0.62953916  0.54109177  0.81249142     1.01200
O3800       O  0.65295956  0.54886569  0.81309331    -0.79300
O3801       O  0.66893803  0.51481650  0.77577121    -0.79500
C3802       C  0.68000014  0.99555975  0.76403182     1.01100
Cr3803     Cr  0.68537279  0.96398671  0.81097891     1.93700
Cr3804     Cr  0.64852759  0.99546589  0.84752129     1.93200
Cr3805     Cr  0.68412240  0.52547107  0.80896989     1.39100
O3806       O  0.67231636  0.99492763  0.82286256    -1.24500
O3807       O  0.69400312  0.97872989  0.72463361    -0.86800
O3808       O  0.65351529  0.95133971  0.70532044    -0.83800
C3809       C  0.63219366  0.94895884  0.69290613     0.96700
O3810       O  0.62867178  0.96130748  0.67066465    -0.83900
O3811       O  0.62350856  0.51651451  0.67632089    -0.86500
C3812       C  0.62831281  0.53837960  0.68809902     1.01200
O3813       O  0.65112428  0.54778201  0.68655911    -0.79300
O3814       O  0.66889937  0.51484990  0.72435528    -0.79500
C3815       C  0.68014544  0.99568282  0.73648612     1.01100
O3816       O  0.71924827  0.97522282  0.67465992    -0.86800
O3817       O  0.68182014  0.94117379  0.65837210    -0.83900
C3818       C  0.68274544  0.94904235  0.63495752     0.96700
O3819       O  0.67120988  0.97083575  0.62894399    -0.83900
O3820       O  0.66483737  0.52664980  0.63312832    -0.86500
C3821       C  0.68649360  0.53991513  0.63679210     1.01200
O3822       O  0.69860301  0.53841042  0.65830987    -0.79300
O3823       O  0.71917224  0.51180883  0.69847072    -0.79500
C3824       C  0.73101719  0.99400191  0.68560307     1.01100
Cr3825     Cr  0.68613562  0.96418174  0.68968210     1.93700
Cr3826     Cr  0.64806563  0.99389221  0.65342804     1.93200
Cr3827     Cr  0.68345874  0.52560089  0.69094951     1.39100
O3828       O  0.67221533  0.99443991  0.67771961    -1.24500
O3829       O  0.79586602  0.97805962  0.77586049    -0.86800
O3830       O  0.83640464  0.95071897  0.79547573    -0.83800
C3831       C  0.85823859  0.94919685  0.80710164     0.96700
O3832       O  0.86230587  0.96255002  0.82863435    -0.83900
O3833       O  0.86607013  0.51793097  0.82268685    -0.86500
C3834       C  0.85978207  0.53987528  0.81150862     1.01200
O3835       O  0.83641731  0.54780665  0.81312414    -0.79300
O3836       O  0.81951373  0.51429570  0.77550396    -0.79500
C3837       C  0.80898091  0.99547528  0.76383943     1.01100
O3838       O  0.77065676  0.97500223  0.82642464    -0.86800
O3839       O  0.80858344  0.94165670  0.84339754    -0.83900
C3840       C  0.80767939  0.95085301  0.86637467     0.96700
O3841       O  0.81996832  0.97239521  0.87116933    -0.83900
O3842       O  0.82504990  0.52592295  0.86646258    -0.86500
C3843       C  0.80287977  0.53856210  0.86381095     1.01200
O3844       O  0.79032750  0.53778756  0.84240671    -0.79300
O3845       O  0.77007921  0.51063694  0.80158495    -0.79500
C3846       C  0.75853703  0.99337350  0.81511644     1.01100
Cr3847     Cr  0.80389979  0.96401327  0.81129687     1.93700
Cr3848     Cr  0.84245407  0.99495561  0.84601392     1.93200
Cr3849     Cr  0.80514399  0.52494871  0.80914847     1.39100
O3850       O  0.81757701  0.99474021  0.82245190    -1.24500
O3851       O  0.82085878  0.51353748  0.72415093    -0.86800
O3852       O  0.83815350  0.54743682  0.68670807    -0.83800
C3853       C  0.86119233  0.53842002  0.68769260     0.96700
O3854       O  0.86629106  0.51675046  0.67560538    -0.83900
O3855       O  0.86177847  0.96250856  0.66965367    -0.86500
C3856       C  0.85865582  0.94957415  0.69145331     1.01200
O3857       O  0.83689729  0.94986148  0.70338151    -0.79300
O3858       O  0.79657225  0.97756731  0.72412782    -0.79500
C3859       C  0.80953457  0.99509123  0.73610485     1.01100
O3860       O  0.77088800  0.51114834  0.69858595    -0.86800
O3861       O  0.79100127  0.53868242  0.65810542    -0.83900
C3862       C  0.80263674  0.53895042  0.63619539     0.96700
O3863       O  0.82435935  0.52582502  0.63272651    -0.83900
O3864       O  0.81832588  0.97157363  0.62847569    -0.86500
C3865       C  0.80630601  0.94994427  0.63361376     1.01200
O3866       O  0.80756537  0.94091353  0.65659936    -0.79300
O3867       O  0.77046748  0.97506304  0.67439195    -0.79500
C3868       C  0.75873646  0.99387014  0.68550989     1.01100
Cr3869     Cr  0.80625280  0.52499260  0.69083849     1.93700
Cr3870     Cr  0.84158930  0.99419531  0.65274085     1.93200
Cr3871     Cr  0.80392985  0.96353758  0.68861209     1.39100
O3872       O  0.81755549  0.99425485  0.67712886    -1.24500
O3873       O  0.97782333  0.69320518  0.77571565    -0.86800
O3874       O  0.95060831  0.65259515  0.79593385    -0.83800
C3875       C  0.94978063  0.63112774  0.80835954     0.96700
O3876       O  0.96254134  0.62826055  0.83041509    -0.83900
O3877       O  0.51693881  0.62371895  0.82487421    -0.86500
C3878       C  0.53851014  0.62844407  0.81261782     1.01200
O3879       O  0.54759453  0.65143025  0.81344870    -0.79300
O3880       O  0.51365897  0.66824564  0.77615825    -0.79500
C3881       C  0.99506577  0.67964183  0.76397491     1.01100
O3882       O  0.97401251  0.71956321  0.82473478    -0.86800
O3883       O  0.94086764  0.68169687  0.84218471    -0.83900
C3884       C  0.94880320  0.68291517  0.86553110     0.96700
O3885       O  0.97077796  0.67173854  0.87161619    -0.83900
O3886       O  0.52671636  0.66626871  0.86721884    -0.86500
C3887       C  0.54001189  0.68782198  0.86301398     1.01200
O3888       O  0.53841832  0.69942130  0.84121653    -0.79300
O3889       O  0.51087362  0.71889503  0.80133650    -0.79500
C3890       C  0.99339959  0.73089129  0.81445010     1.01100
Cr3891     Cr  0.96351367  0.68574642  0.81073542     1.93700
Cr3892     Cr  0.99430017  0.64860967  0.84744185     1.93200
Cr3893     Cr  0.52495286  0.68349350  0.80905269     1.39100
O3894       O  0.99421235  0.67241816  0.82281853    -1.24500
O3895       O  0.97479295  0.71996564  0.67526753    -0.86800
O3896       O  0.94082770  0.68271974  0.65838045    -0.83800
C3897       C  0.94854199  0.68273808  0.63491195     0.96700
O3898       O  0.97021886  0.67067685  0.62917187    -0.83900
O3899       O  0.52690814  0.66515385  0.63372711    -0.86500
C3900       C  0.53977411  0.68710842  0.63725408     1.01200
O3901       O  0.53821032  0.69921213  0.65881264    -0.79300
O3902       O  0.51157357  0.71913116  0.69912292    -0.79500
C3903       C  0.99416689  0.73119655  0.68566620     1.01100
O3904       O  0.97826093  0.69380764  0.72476076    -0.86800
O3905       O  0.95047016  0.65371463  0.70506263    -0.83900
C3906       C  0.94875927  0.63205532  0.69306294     0.96700
O3907       O  0.96203879  0.62813317  0.67140414    -0.83900
O3908       O  0.51867825  0.62334444  0.67720340    -0.86500
C3909       C  0.54050895  0.62917687  0.68875133     1.01200
O3910       O  0.54849250  0.65248770  0.68745697    -0.79300
O3911       O  0.51470230  0.66919943  0.72486944    -0.79500
C3912       C  0.99534057  0.67999075  0.73647512     1.01100
Cr3913     Cr  0.96378417  0.68645534  0.68976042     1.93700
Cr3914     Cr  0.99418907  0.64807889  0.65382827     1.93200
Cr3915     Cr  0.52551815  0.68391358  0.69154957     1.39100
O3916       O  0.99422817  0.67253392  0.67788225    -1.24500
O3917       O  0.97493724  0.82038196  0.72436671    -0.86800
O3918       O  0.94082464  0.83663596  0.68674754    -0.83800
C3919       C  0.94879764  0.85992175  0.68795306     0.96700
O3920       O  0.97037858  0.86589777  0.67626665    -0.83900
O3921       O  0.52500039  0.86209470  0.67063459    -0.86500
C3922       C  0.53873998  0.85863839  0.69197356     1.01200
O3923       O  0.53893138  0.83667440  0.70354746    -0.79300
O3924       O  0.51170468  0.79636040  0.72449412    -0.79500
C3925       C  0.99377707  0.80949938  0.73625966     1.01100
O3926       O  0.97820789  0.77057785  0.69911186    -0.86800
O3927       O  0.95062142  0.78992723  0.65830402    -0.83900
C3928       C  0.94980403  0.80186384  0.63654992     0.96700
O3929       O  0.96245307  0.82386297  0.63326240    -0.83900
O3930       O  0.51682583  0.81895180  0.62884021    -0.86500
C3931       C  0.53862990  0.80695838  0.63363105     1.01200
O3932       O  0.54767143  0.80746166  0.65664316    -0.79300
O3933       O  0.51458796  0.76979832  0.67492570    -0.79500
C3934       C  0.99513415  0.75851635  0.68556699     1.01100
Cr3935     Cr  0.96388840  0.80545025  0.69108983     1.93700
Cr3936     Cr  0.99385160  0.84163037  0.65335199     1.93200
Cr3937     Cr  0.52546486  0.80362914  0.68887037     1.39100
O3938       O  0.99443406  0.81717947  0.67739354    -1.24500
O3939       O  0.51086903  0.79549792  0.77613025    -0.86800
O3940       O  0.53843668  0.83552717  0.79611617    -0.83800
C3941       C  0.54035974  0.85712377  0.80811756     0.96700
O3942       O  0.52757501  0.86098748  0.83000133    -0.83900
O3943       O  0.97300190  0.86631877  0.82342257    -0.86500
C3944       C  0.95111404  0.86151364  0.81188464     1.01200
O3945       O  0.94164206  0.83875587  0.81357422    -0.79300
O3946       O  0.97496808  0.82066957  0.77579660    -0.79500
C3947       C  0.99354225  0.80926528  0.76398298     1.01100
O3948       O  0.51369305  0.76950596  0.82574961    -0.86800
O3949       O  0.54727504  0.80712365  0.84374769    -0.83900
C3950       C  0.53824949  0.80674444  0.86682277     0.96700
O3951       O  0.51667416  0.81887027  0.87172264    -0.83900
O3952       O  0.96260331  0.82496196  0.86684445    -0.86500
C3953       C  0.94960647  0.80310266  0.86364842     1.01200
O3954       O  0.94996052  0.79128729  0.84187595    -0.79300
O3955       O  0.97699158  0.77067359  0.80170645    -0.79500
C3956       C  0.99420323  0.75832949  0.81481426     1.01100
Cr3957     Cr  0.52499715  0.80298434  0.81150402     1.93700
Cr3958     Cr  0.99482446  0.84164646  0.84680869     1.93200
Cr3959     Cr  0.96352867  0.80631836  0.80920275     1.39100
O3960       O  0.99441010  0.81711180  0.82286138    -1.24500
O3961       O  0.51978847  0.76131252  0.55133318    -0.86800
O3962       O  0.53999939  0.78879509  0.59115470    -0.83800
C3963       C  0.55210621  0.79047520  0.61268855     0.96700
O3964       O  0.57404090  0.77747597  0.61628176    -0.83900
O3965       O  0.56784675  0.72249754  0.62128773    -0.86500
C3966       C  0.55622436  0.70061207  0.61639033     1.01200
O3967       O  0.55730517  0.69154365  0.59337368    -0.79300
O3968       O  0.51985131  0.72569721  0.57633511    -0.79500
C3969       C  0.50795748  0.74428237  0.56507251     1.01100
O3970       O  0.56981962  0.76359314  0.52547737    -0.86800
O3971       O  0.58732844  0.79764456  0.56252530    -0.83900
C3972       C  0.61037093  0.78854059  0.56148771     0.96700
O3973       O  0.61543759  0.76674803  0.57331031    -0.83900
O3974       O  0.61059620  0.71186111  0.57957242    -0.86500
C3975       C  0.60692067  0.69907576  0.55759841     1.01200
O3976       O  0.58528025  0.70081070  0.54566517    -0.79300
O3977       O  0.54490588  0.72804773  0.52586445    -0.79500
C3978       C  0.55864991  0.74490209  0.51380215     1.01100
Cr3979     Cr  0.55524756  0.77525517  0.55861507     1.93700
Cr3980     Cr  0.59094331  0.74464675  0.59659408     1.93200
Cr3981     Cr  0.55282507  0.71411433  0.56131835     1.39100
O3982       O  0.56667890  0.74468697  0.57250351    -1.24500
O3983       O  0.56943890  0.51933138  0.77057951    -0.86800
O3984       O  0.58612670  0.55720332  0.80398159    -0.83800
C3985       C  0.60961491  0.55662678  0.79627794     0.96700
O3986       O  0.61551251  0.56822362  0.77446276    -0.83900
O3987       O  0.61120059  0.57340471  0.71824440    -0.86500
C3988       C  0.60766582  0.55149029  0.70525611     1.01200
O3989       O  0.58632166  0.53916232  0.70727687    -0.79300
O3990       O  0.54585586  0.51965771  0.73401343    -0.74700
C3991       C  0.55929907  0.50781199  0.75122869     1.01100
O3992       O  0.51993757  0.54545762  0.76629627    -0.86800
O3993       O  0.53936622  0.58610449  0.79361881    -0.83900
C3994       C  0.55162043  0.60754800  0.79562615     0.96700
O3995       O  0.57349365  0.61108930  0.78265513    -0.83900
O3996       O  0.56795385  0.61532507  0.72664541    -0.86500
C3997       C  0.55647647  0.60940972  0.70478791     1.01200
O3998       O  0.55779987  0.58603491  0.69683813    -0.79300
O3999       O  0.52019208  0.56983109  0.73034941    -0.79500
C4000       C  0.50826005  0.55915958  0.74912434     1.01100
Cr4001     Cr  0.55482528  0.55308069  0.78093838     1.93700
Cr4002     Cr  0.59096449  0.59088375  0.75047876     1.93200
Cr4003     Cr  0.55354532  0.55474282  0.71984589     1.39100
O4004       O  0.56690668  0.56650413  0.75045358    -1.24500
O4005       O  0.76388573  0.57014835  0.52576366    -0.86800
O4006       O  0.79741282  0.58764622  0.56341235    -0.83800
C4007       C  0.78839253  0.61069374  0.56218125     0.96700
O4008       O  0.76666734  0.61593200  0.57400885    -0.83900
O4009       O  0.71239303  0.61165679  0.57982126    -0.86500
C4010       C  0.69946223  0.60837540  0.55804254     1.01200
O4011       O  0.69995464  0.58658657  0.54613849    -0.79300
O4012       O  0.72773169  0.54607153  0.52576822    -0.79500
C4013       C  0.74537352  0.55892689  0.51383833     1.01100
O4014       O  0.76100673  0.52033561  0.55164251    -0.86800
O4015       O  0.78830248  0.54066751  0.59219346    -0.83900
C4016       C  0.78873498  0.55261276  0.61393456     0.96700
O4017       O  0.77569461  0.57444046  0.61717520    -0.83900
O4018       O  0.72136461  0.56867034  0.62126416    -0.86500
C4019       C  0.69973972  0.55671720  0.61614037     1.01200
O4020       O  0.69080335  0.55768547  0.59310249    -0.79300
O4021       O  0.72482689  0.52033304  0.57576941    -0.79500
C4022       C  0.74352879  0.50843848  0.56470369     1.01100
Cr4023     Cr  0.77496115  0.55573113  0.55927736     1.93700
Cr4024     Cr  0.74403930  0.59158105  0.59697226     1.93200
Cr4025     Cr  0.71350536  0.55370463  0.56120282     1.39100
O4026       O  0.74415747  0.56733002  0.57277513    -1.24500
O4027       O  0.96877326  0.72527868  0.57533486    -0.86800
O4028       O  0.93234263  0.69057711  0.59136137    -0.83800
C4029       C  0.93250557  0.69826318  0.61483962     0.96700
O4030       O  0.91995059  0.71959243  0.62071480    -0.83900
O4031       O  0.91445087  0.77480737  0.61725832    -0.86500
C4032       C  0.93614744  0.78804350  0.61418245     1.01200
O4033       O  0.94804415  0.78801200  0.59241469    -0.79300
O4034       O  0.96852956  0.76152306  0.55138794    -0.79500
C4035       C  0.98049734  0.74415377  0.56459001     1.01100
O4036       O  0.94332728  0.72886369  0.52537069    -0.86800
O4037       O  0.90318198  0.70052511  0.54470644    -0.83900
C4038       C  0.88157838  0.69846810  0.55676773     0.96700
O4039       O  0.87752567  0.71156169  0.57845941    -0.83900
O4040       O  0.87265147  0.76769223  0.57355876    -0.86500
C4041       C  0.87838768  0.78968435  0.56216968     1.01200
O4042       O  0.90158783  0.79785333  0.56363086    -0.79300
O4043       O  0.91871323  0.76482024  0.52562566    -0.79500
C4044       C  0.92984534  0.74620884  0.51364593     1.01100
Cr4045     Cr  0.93577242  0.71401497  0.56025397     1.93700
Cr4046     Cr  0.89718482  0.74353830  0.59631842     1.93200
Cr4047     Cr  0.93314768  0.77525895  0.55928414     1.39100
O4048       O  0.92165302  0.74424966  0.57231143    -1.24500
O4049       O  0.76079384  0.96872825  0.55106230    -0.86800
O4050       O  0.78749740  0.94869110  0.59152044    -0.83800
C4051       C  0.78919029  0.93668003  0.61309735     0.96700
O4052       O  0.77590030  0.91501898  0.61693125    -0.83900
O4053       O  0.72015219  0.92140498  0.62132556    -0.86500
C4054       C  0.69847224  0.93310353  0.61526910     1.01200
O4055       O  0.69054731  0.93210222  0.59186972    -0.79300
O4056       O  0.72461490  0.96918478  0.57520139    -0.79500
C4057       C  0.74346433  0.98085694  0.56431501     1.01100
O4058       O  0.76366526  0.91806668  0.52589738    -0.86800
O4059       O  0.79684569  0.90083710  0.56377726    -0.83900
C4060       C  0.78754607  0.87796025  0.56237244     0.96700
O4061       O  0.76564992  0.87321090  0.57407258    -0.83900
O4062       O  0.71066790  0.87842516  0.57976165    -0.86500
C4063       C  0.69824933  0.88181575  0.55751113     1.01200
O4064       O  0.70051621  0.90317043  0.54509521    -0.79300
O4065       O  0.72821305  0.94332366  0.52552065    -0.79500
C4066       C  0.74533177  0.92949221  0.51386386     1.01100
Cr4067     Cr  0.77456298  0.93308953  0.55904892     1.93700
Cr4068     Cr  0.74320833  0.89809095  0.59702380     1.93200
Cr4069     Cr  0.71353194  0.93593377  0.56048758     1.39100
O4070       O  0.74375948  0.92211124  0.57262074    -1.24500
O4071       O  0.96886429  0.54656228  0.76673968    -0.86800
O4072       O  0.94851639  0.58707215  0.79406787    -0.83800
C4073       C  0.93610760  0.60860866  0.79481696     0.96700
O4074       O  0.91395697  0.61146007  0.78216498    -0.83900
O4075       O  0.91941270  0.61610628  0.72776786    -0.86500
C4076       C  0.93181276  0.61127867  0.70623865     1.01200
O4077       O  0.93120233  0.58824569  0.69718458    -0.79300
O4078       O  0.96865199  0.57153942  0.73119729    -0.79500
C4079       C  0.98062245  0.55992990  0.74945220     1.01100
O4080       O  0.91944675  0.52060583  0.76995823    -0.86800
O4081       O  0.90232709  0.55795614  0.80376374    -0.83900
C4082       C  0.87909373  0.55614178  0.79564310     0.96700
O4083       O  0.87293021  0.56749465  0.77379735    -0.83900
O4084       O  0.87734104  0.57344946  0.71800401    -0.86500
C4085       C  0.88169053  0.55192421  0.70461091     1.01200
O4086       O  0.90360474  0.54037179  0.70615941    -0.79300
O4087       O  0.94378041  0.52099659  0.73388588    -0.79500
C4088       C  0.93031405  0.50897117  0.75099940     1.01100
Cr4089     Cr  0.93373114  0.55404899  0.78096854     1.93700
Cr4090     Cr  0.89686726  0.59102394  0.75040558     1.93200
Cr4091     Cr  0.93578081  0.55630350  0.71975605     1.39100
O4092       O  0.92173203  0.56742533  0.75036008    -1.24500
O4093       O  0.57033000  0.96923553  0.73107857    -0.86800
O4094       O  0.58841954  0.93167323  0.69717947    -0.83800
C4095       C  0.61141610  0.93235385  0.70622220     0.96700
O4096       O  0.61627458  0.92037090  0.72791143    -0.83900
O4097       O  0.61184878  0.91497335  0.78200921    -0.86500
C4098       C  0.60827070  0.93665636  0.79519508     1.01200
O4099       O  0.58617462  0.94802083  0.79523094    -0.79300
O4100       O  0.54623456  0.96840457  0.76742056    -0.79500
C4101       C  0.55963579  0.98046442  0.75040358     1.01100
O4102       O  0.52089969  0.94329452  0.73319524    -0.86800
O4103       O  0.54128158  0.90295298  0.70571103    -0.83900
C4104       C  0.55277008  0.88089987  0.70562867     0.96700
O4105       O  0.57441172  0.87734612  0.71887519    -0.83900
O4106       O  0.56898887  0.87297090  0.77311045    -0.86500
C4107       C  0.55683460  0.87790398  0.79469736     1.01200
O4108       O  0.55719822  0.90097775  0.80361173    -0.79300
O4109       O  0.51973829  0.91936083  0.76964643    -0.79500
C4110       C  0.50861686  0.93018384  0.75030816     1.01100
Cr4111     Cr  0.55628978  0.93569470  0.71955695     1.93700
Cr4112     Cr  0.59173625  0.89753334  0.75047482     1.93200
Cr4113     Cr  0.55343804  0.93309214  0.78122888     1.39100
O4114       O  0.56740282  0.92178504  0.75043292    -1.24500
O4115       O  0.56969654  0.76358774  0.97471382    -0.86800
O4116       O  0.58553013  0.79840875  0.93795352    -0.83800
C4117       C  0.60907065  0.79081442  0.93859456     0.96700
O4118       O  0.61534273  0.76934725  0.92664158    -0.83900
O4119       O  0.61188021  0.71429545  0.92025377    -0.86500
C4120       C  0.60858468  0.70057494  0.94161075     1.01200
O4121       O  0.58673314  0.70037575  0.95331652    -0.79300
O4122       O  0.54614104  0.72706359  0.97432493    -0.79500
C4123       C  0.55902612  0.74460373  0.98637980     1.01100
O4124       O  0.51976506  0.76013702  0.94955755    -0.86800
O4125       O  0.53904797  0.78798636  0.90905843    -0.83900
C4126       C  0.55147013  0.79037668  0.88770788     0.96700
O4127       O  0.57372606  0.77818515  0.88414364    -0.83900
O4128       O  0.56852908  0.72323342  0.87873416    -0.86500
C4129       C  0.55688408  0.70129163  0.88353684     1.01200
O4130       O  0.55825337  0.69189958  0.90634005    -0.79300
O4131       O  0.52002032  0.72476201  0.92436167    -0.79500
C4132       C  0.50800187  0.74323511  0.93572933     1.01100
Cr4133     Cr  0.55459473  0.77491611  0.94174480     1.93700
Cr4134     Cr  0.59124964  0.74603380  0.90352302     1.93200
Cr4135     Cr  0.55375284  0.71373722  0.93859631     1.39100
O4136       O  0.56695185  0.74486897  0.92768466    -1.24500
O4137       O  0.76143661  0.51921219  0.94848998    -0.86800
O4138       O  0.78867717  0.53957265  0.90789358    -0.83800
C4139       C  0.78948373  0.55212207  0.88649349     0.96700
O4140       O  0.77705185  0.57443393  0.88388526    -0.83900
O4141       O  0.72283796  0.56907811  0.87925862    -0.86500
C4142       C  0.70122355  0.55702585  0.88409859     1.01200
O4143       O  0.69216318  0.55779871  0.90712270    -0.79300
O4144       O  0.72567241  0.51983835  0.92386459    -0.79500
C4145       C  0.74403658  0.50763742  0.93509656     1.01100
O4146       O  0.76506009  0.56859987  0.97482019    -0.86800
O4147       O  0.79855178  0.58572900  0.93729598    -0.83900
C4148       C  0.79049714  0.60908386  0.93890818     0.96700
O4149       O  0.76865171  0.61536842  0.92767067    -0.83900
O4150       O  0.71291886  0.61124575  0.92159630    -0.86500
C4151       C  0.69963663  0.60720413  0.94315254     1.01200
O4152       O  0.70138690  0.58547792  0.95498535    -0.79300
O4153       O  0.72871972  0.54481956  0.97446092    -0.79500
C4154       C  0.74591924  0.55818063  0.98648991     1.01100
Cr4155     Cr  0.77581009  0.55434257  0.94114365     1.93700
Cr4156     Cr  0.74533736  0.59152075  0.90428286     1.93200
Cr4157     Cr  0.71461973  0.55297825  0.93911480     1.39100
O4158       O  0.74525574  0.56668014  0.92791593    -1.24500
O4159       O  0.72443363  0.96885124  0.92486120    -0.86800
O4160       O  0.69120063  0.93114499  0.90807165    -0.83800
C4161       C  0.69927142  0.93288923  0.88484596     0.96700
O4162       O  0.72124793  0.92146390  0.87880079    -0.83900
O4163       O  0.77745590  0.91610084  0.88310739    -0.86500
C4164       C  0.79060647  0.93774722  0.88712139     1.01200
O4165       O  0.78864660  0.94968979  0.90881065    -0.79300
O4166       O  0.76044000  0.96885043  0.94919004    -0.79500
C4167       C  0.74326503  0.98066296  0.93559855     1.01100
O4168       O  0.72800546  0.94292074  0.97450412    -0.86800
O4169       O  0.70115687  0.90210691  0.95423321    -0.83900
C4170       C  0.70078840  0.88048915  0.94201815     0.96700
O4171       O  0.71406598  0.87747393  0.92026245    -0.83900
O4172       O  0.76939775  0.87353253  0.92556423    -0.86500
C4173       C  0.79074156  0.87927532  0.93804228     1.01200
O4174       O  0.79857193  0.90268836  0.93758400    -0.79300
O4175       O  0.76419115  0.91873035  0.97445333    -0.79500
C4176       C  0.74543647  0.92965571  0.98631490     1.01100
Cr4177     Cr  0.71398898  0.93523852  0.93935431     1.93700
Cr4178     Cr  0.74545850  0.89826546  0.90294624     1.93200
Cr4179     Cr  0.77524931  0.93393877  0.94141019     1.39100
O4180       O  0.74491485  0.92210060  0.92754081    -1.24500
O4181       O  0.96819072  0.76145109  0.94807572    -0.86800
O4182       O  0.94753781  0.78898195  0.90779672    -0.83800
C4183       C  0.93592373  0.78907670  0.88590032     0.96700
O4184       O  0.91461697  0.77534932  0.88240562    -0.83900
O4185       O  0.92088331  0.72022300  0.87877451    -0.86500
C4186       C  0.93259962  0.69859761  0.88500233     1.01200
O4187       O  0.93126360  0.69068689  0.90835414    -0.79300
O4188       O  0.96845470  0.72464881  0.92474342    -0.79500
C4189       C  0.98020808  0.74355001  0.93543985     1.01100
O4190       O  0.91807662  0.76449179  0.97408971    -0.86800
O4191       O  0.90017247  0.79744227  0.93640394    -0.83900
C4192       C  0.87736070  0.78803492  0.93763149     0.96700
O4193       O  0.87264289  0.76636043  0.92547434    -0.83900
O4194       O  0.87772199  0.71192042  0.92017281    -0.86500
C4195       C  0.88076921  0.69945541  0.94232456     1.01200
O4196       O  0.90221934  0.70074221  0.95475557    -0.79300
O4197       O  0.94284116  0.72869166  0.97435821    -0.79500
C4198       C  0.92949494  0.74612431  0.98610143     1.01100
Cr4199     Cr  0.93253045  0.77536690  0.94058190     1.93700
Cr4200     Cr  0.89756619  0.74361914  0.90275643     1.93200
Cr4201     Cr  0.93514178  0.71387115  0.93949969     1.39100
O4202       O  0.92149250  0.74431160  0.92722254    -1.24500
O4203       O  0.91851896  0.96928254  0.76901351    -0.86800
O4204       O  0.90200533  0.93145716  0.80263415    -0.83800
C4205       C  0.87897135  0.93236289  0.79366458     0.96700
O4206       O  0.87406344  0.92029250  0.77201924    -0.83900
O4207       O  0.87859795  0.91421500  0.71774301    -0.86500
C4208       C  0.88121441  0.93633474  0.70518963     1.01200
O4209       O  0.90251160  0.94896990  0.70607303    -0.79300
O4210       O  0.94304886  0.96970236  0.73318451    -0.79500
C4211       C  0.92974022  0.98139341  0.75066348     1.01100
O4212       O  0.96910021  0.94402811  0.76608083    -0.86800
O4213       O  0.94976321  0.90366438  0.79309901    -0.83900
C4214       C  0.93792626  0.88201949  0.79490027     0.96700
O4215       O  0.91630736  0.87796847  0.78178630    -0.83900
O4216       O  0.92213896  0.87339861  0.72600333    -0.86500
C4217       C  0.93329511  0.87952197  0.70410718     1.01200
O4218       O  0.93216488  0.90292994  0.69621021    -0.79300
O4219       O  0.96998677  0.92067151  0.72930233    -0.79500
C4220       C  0.98123862  0.93069725  0.74890752     1.01100
Cr4221     Cr  0.93383539  0.93609969  0.78003169     1.93700
Cr4222     Cr  0.89899429  0.89751468  0.74943921     1.93200
Cr4223     Cr  0.93591485  0.93448218  0.71883606     1.39100
O4224       O  0.92273419  0.92223407  0.74940504    -1.24500
loop_ 
_geom_bond_atom_site_label_1 
_geom_bond_atom_site_label_2 
_geom_bond_distance 
_geom_bond_site_symmetry_2 
_ccdc_geom_bond_type 
O1          Cr19   1.920       .  S
O1            C9   1.246       .  A
O2          Cr19   1.974       .  S
O2            C3   1.248       .  A
C3            O4   1.284       .  A
C3          C477   1.515       .  S
O4         Cr548   2.076       .  S
O5          Cr20   2.070       .  S
O5            C6   1.281       .  A
C6            O7   1.247       .  A
C6          C364   1.510       .  S
O7          Cr21   1.971       .  S
O8          Cr21   1.919       .  S
O8          C537   1.247       .  A
C9          O536   1.252       .  A
C9           C62   1.375       .  S
O10         Cr19   1.949       .  S
O10          C18   1.254       .  A
O11         Cr19   1.942       .  S
O11          C12   1.252       .  A
C12          O13   1.297       .  A
C12         C496   1.507       .  S
O13        Cr548   2.108       .  S
O14         Cr20   2.120       .  S
O14          C15   1.301       .  A
C15          O16   1.249       .  A
C15         C345   1.510       .  S
O16         Cr21   1.935       .  S
O17         Cr21   1.947       .  S
O17         C546   1.253   1_554  A
C18         O545   1.247       .  A
C18          C40   1.389       .  S
Cr19        O550   1.790       .  S
Cr20        O532   2.118   1_554  S
Cr20        O541   2.068   1_554  S
Cr20         O22   1.729       .  S
Cr21         O22   1.788       .  S
O22        Cr547   1.789   1_554  S
O23         Cr41   1.963       .  S
O23         C559   1.258   1_554  A
O24         Cr41   1.938       .  S
O24          C25   1.250       .  A
C25          O26   1.296       .  A
C25         C311   1.504       .  S
O26         Cr42   2.104   1_554  S
O27        Cr570   2.060       .  S
O27          C28   1.279       .  A
C28          O29   1.246       .  A
C28         C452   1.501       .  S
O29         Cr43   1.966       .  S
O30         Cr43   1.924       .  S
O30          C31   1.250       .  A
C31         O551   1.259       .  A
C31          C75   1.401       .  S
O32         Cr41   1.923       .  S
O32         C568   1.247       .  A
O33         Cr41   1.991       .  S
O33          C34   1.251       .  A
C34          O35   1.274       .  A
C34         C342   1.506       .  S
O35         Cr42   2.043   1_554  S
O36        Cr570   2.089       .  S
O36          C37   1.293       .  A
C37          O38   1.252       .  A
C37         C499   1.493       .  S
O38         Cr43   1.942       .  S
O39         Cr43   1.949       .  S
O39          C40   1.254       .  A
C40         O560   1.246       .  A
Cr41         O44   1.790   1_554  S
Cr42        O555   2.062       .  S
Cr42        O564   2.091       .  S
Cr42         O44   1.730       .  S
Cr43        O572   1.788       .  S
O44        Cr571   1.790       .  S
O45         Cr63   1.926       .  S
O45          C53   1.249       .  A
O46         Cr63   1.969       .  S
O46          C47   1.246       .  A
C47          O48   1.279       .  A
C47         C421   1.505       .  S
O48        Cr592   2.064       .  S
O49         Cr64   2.105   1_554  S
O49          C50   1.296       .  A
C50          O51   1.250       .  A
C50         C276   1.504       .  S
O51         Cr65   1.936       .  S
O52         Cr65   1.957       .  S
O52         C581   1.255   1_554  A
C53         O580   1.255       .  A
C53          C84   1.386       .  S
O54         Cr63   1.943       .  S
O54          C62   1.251       .  A
O55         Cr63   1.948       .  S
O55          C56   1.252       .  A
C56          O57   1.295       .  A
C56         C474   1.499       .  S
O57        Cr592   2.092       .  S
O58         Cr64   2.053   1_554  S
O58          C59   1.277       .  A
C59          O60   1.249       .  A
C59         C367   1.512       .  S
O60         Cr65   1.988       .  S
O61         Cr65   1.919       .  S
O61         C590   1.246       .  A
C62         O589   1.247       .  A
Cr63        O594   1.795       .  S
Cr64        O576   2.061       .  S
Cr64        O585   2.088       .  S
Cr64         O66   1.730       .  S
Cr65         O66   1.790   1_554  S
O66        Cr591   1.793       .  S
O67         Cr85   1.925       .  S
O67          C75   1.249       .  A
O68         Cr85   1.981       .  S
O68          C69   1.247       .  A
C69          O70   1.275       .  A
C69         C455   1.501       .  S
O70        Cr614   2.043       .  S
O71         Cr86   2.076   1_554  S
O71          C72   1.289       .  A
C72          O73   1.252       .  A
C72         C314   1.490       .  S
O73         Cr87   1.946       .  S
O74         Cr87   1.961       .  S
O74         C603   1.257   1_554  A
C75         O602   1.256       .  A
O76         Cr85   1.954       .  S
O76          C84   1.255       .  A
O77         Cr85   1.943       .  S
O77          C78   1.251       .  A
C78          O79   1.291       .  A
C78         C424   1.490       .  S
O79        Cr614   2.080       .  S
O80         Cr86   2.042   1_554  S
O80          C81   1.276       .  A
C81          O82   1.250       .  A
C81         C279   1.503       .  S
O82         Cr87   1.988       .  S
O83         Cr87   1.927       .  S
O83         C612   1.249       .  A
C84         O611   1.249       .  A
Cr85        O616   1.795       .  S
Cr86        O598   2.040       .  S
Cr86        O607   2.078       .  S
Cr86         O88   1.730       .  S
Cr87         O88   1.796   1_554  S
O88        Cr613   1.794       .  S
O89        Cr107   1.922       .  S
O89          C97   1.248       .  A
O90        Cr107   1.966       .  S
O90          C91   1.245       .  A
C91          O92   1.284       .  A
C91         C465   1.515       .  S
O92        Cr108   2.082       .  S
O93       Cr1164   2.101   1_545  S
O93          C94   1.294       .  A
C94          O95   1.253       .  A
C94         C446   1.505       .  S
O95        Cr109   1.946       .  S
O96        Cr109   1.953       .  S
O96        C1153   1.255   1_545  A
C97        O1152   1.254       .  A
C97         C150   1.393       .  S
O98        Cr107   1.951       .  S
O98         C106   1.254       .  A
O99        Cr107   1.944       .  S
O99         C100   1.253       .  A
C100        O101   1.294       .  A
C100        C402   1.497       .  S
O101       Cr108   2.093       .  S
O102      Cr1164   2.069   1_545  S
O102        C103   1.281       .  A
C103        O104   1.247       .  A
C103        C289   1.512       .  S
O104       Cr109   1.972       .  S
O105       Cr109   1.922       .  S
O105       C1162   1.247   1_545  A
C106       O1161   1.247       .  A
C106        C119   1.392       .  S
Cr107       O110   1.794       .  S
Cr108      O1149   2.101       .  S
Cr108      O1158   2.075       .  S
Cr108       O110   1.730       .  S
Cr109      O1166   1.787   1_545  S
O110      Cr1165   1.788       .  S
O111       Cr129   1.953       .  S
O111        C119   1.255       .  A
O112       Cr129   1.942       .  S
O112        C113   1.252       .  A
C113        O114   1.296       .  A
C113        C399   1.506       .  S
O114       Cr130   2.106       .  S
O115      Cr1186   2.046   1_545  S
O115        C116   1.277       .  A
C116        O117   1.249       .  A
C116        C292   1.506       .  S
O117       Cr131   1.987       .  S
O118       Cr131   1.920       .  S
O118       C1175   1.247   1_545  A
C119       O1174   1.246       .  A
O120       Cr129   1.919       .  S
O120        C128   1.248       .  A
O121       Cr129   1.976       .  S
O121        C122   1.248       .  A
C122        O123   1.280       .  A
C122        C358   1.508       .  S
O123       Cr130   2.063       .  S
O124      Cr1186   2.111   1_545  S
O124        C125   1.298       .  A
C125        O126   1.249       .  A
C125        C323   1.503       .  S
O126       Cr131   1.930       .  S
O127       Cr131   1.967       .  S
O127       C1184   1.258   1_545  A
C128       O1183   1.258       .  A
C128        C172   1.398       .  S
Cr129       O132   1.783       .  S
Cr130      O1171   2.051       .  S
Cr130      O1180   2.112       .  S
Cr130       O132   1.729       .  S
Cr131      O1188   1.789   1_545  S
O132      Cr1187   1.789       .  S
O133       Cr151   1.967       .  S
O133        C141   1.258       .  A
O134       Cr151   1.939       .  S
O134        C135   1.250       .  A
C135        O136   1.295       .  A
C135        C509   1.504       .  S
O136       Cr152   2.103       .  S
O137      Cr1208   2.067   1_545  S
O137        C138   1.281       .  A
C138        O139   1.246       .  A
C138        C386   1.507       .  S
O139       Cr153   1.969       .  S
O140       Cr153   1.922       .  S
O140       C1197   1.249   1_545  A
C141       O1196   1.250       .  A
C141        C163   1.402       .  S
O142       Cr151   1.922       .  S
O142        C150   1.246       .  A
O143       Cr151   1.988       .  S
O143        C144   1.250       .  A
C144        O145   1.276       .  A
C144        C468   1.510       .  S
O145       Cr152   2.050       .  S
O146      Cr1208   2.086   1_545  S
O146        C147   1.293       .  A
C147        O148   1.253       .  A
C147        C443   1.493       .  S
O148       Cr153   1.947       .  S
O149       Cr153   1.952       .  S
O149       C1206   1.254   1_545  A
C150       O1205   1.254       .  A
Cr151       O154   1.790       .  S
Cr152      O1193   2.064       .  S
Cr152      O1202   2.086       .  S
Cr152       O154   1.730       .  S
Cr153      O1210   1.790   1_545  S
O154      Cr1209   1.789       .  S
O155       Cr173   1.924       .  S
O155       C1219   1.249   1_545  A
O156       Cr173   1.985       .  S
O156        C157   1.248       .  A
C157        O158   1.277       .  A
C157        C389   1.507       .  S
O158      Cr1230   2.049   1_545  S
O159       Cr174   2.078       .  S
O159        C160   1.290       .  A
C160        O161   1.252       .  A
C160        C512   1.489       .  S
O161       Cr175   1.945       .  S
O162       Cr175   1.965       .  S
O162        C163   1.257       .  A
C163       O1211   1.249       .  A
O164       Cr173   1.961       .  S
O164       C1228   1.256   1_545  A
O165       Cr173   1.950       .  S
O165        C166   1.253       .  A
C166        O167   1.291       .  A
C166        C320   1.494       .  S
O167      Cr1230   2.080   1_545  S
O168       Cr174   2.046       .  S
O168        C169   1.276       .  A
C169        O170   1.249       .  A
C169        C355   1.508       .  S
O170       Cr175   1.988       .  S
O171       Cr175   1.922       .  S
O171        C172   1.249       .  A
C172       O1220   1.256       .  A
Cr173      O1232   1.794   1_545  S
Cr174      O1214   2.047       .  S
Cr174      O1223   2.079       .  S
Cr174       O176   1.729       .  S
Cr175       O176   1.793       .  S
O176      Cr1229   1.793       .  S
O177       Cr195   1.948       .  S
O177        C185   1.254       .  A
O178       Cr195   1.945       .  S
O178        C179   1.252       .  A
C179        O180   1.294       .  A
C179        C377   1.496       .  S
O180       Cr196   2.091       .  S
O181      Cr2308   2.049   1_455  S
O181        C182   1.276       .  A
C182        O183   1.249       .  A
C182        C298   1.510       .  S
O183       Cr197   1.989       .  S
O184       Cr197   1.918       .  S
O184       C2297   1.246   1_455  A
C185       O2296   1.246       .  A
C185        C216   1.388       .  S
O186       Cr195   1.922       .  S
O186        C194   1.248       .  A
O187       Cr195   1.968       .  S
O187        C188   1.247       .  A
C188        O189   1.279       .  A
C188        C490   1.501       .  S
O189       Cr196   2.059       .  S
O190      Cr2308   2.108   1_455  S
O190        C191   1.297       .  A
C191        O192   1.249       .  A
C191        C433   1.505       .  S
O192       Cr197   1.936       .  S
O193       Cr197   1.958       .  S
O193       C2306   1.256   1_455  A
C194       O2305   1.256       .  A
C194        C260   1.384       .  S
Cr195       O198   1.793       .  S
Cr196      O2293   2.049       .  S
Cr196      O2302   2.109       .  S
Cr196       O198   1.728       .  S
Cr197      O2310   1.790   1_455  S
O198      Cr2309   1.790       .  S
O199       Cr217   1.927       .  S
O199        C207   1.248       .  A
O200       Cr217   1.972       .  S
O200        C201   1.247       .  A
C201        O202   1.281       .  A
C201        C333   1.510       .  S
O202       Cr218   2.071       .  S
O203      Cr2330   2.111   1_455  S
O203        C204   1.298       .  A
C204        O205   1.250       .  A
C204        C270   1.506       .  S
O205       Cr219   1.935       .  S
O206       Cr219   1.946       .  S
O206       C2319   1.252   1_455  A
C207       O2318   1.252       .  A
C207        C238   1.380       .  S
O208       Cr217   1.948       .  S
O208        C216   1.254       .  A
O209       Cr217   1.946       .  S
O209        C210   1.253       .  A
C210        O211   1.297       .  A
C210        C380   1.510       .  S
O211       Cr218   2.109       .  S
O212      Cr2330   2.077   1_455  S
O212        C213   1.282       .  A
C213        O214   1.246       .  A
C213        C301   1.515       .  S
O214       Cr219   1.971       .  S
O215       Cr219   1.919       .  S
O215       C2328   1.247   1_455  A
C216       O2327   1.247       .  A
Cr217       O220   1.789       .  S
Cr218      O2315   2.111       .  S
Cr218      O2324   2.077       .  S
Cr218       O220   1.732       .  S
Cr219      O2332   1.788   1_455  S
O220      Cr2331   1.789       .  S
O221       Cr239   1.922       .  S
O221        C229   1.248       .  A
O222       Cr239   1.965       .  S
O222        C223   1.245       .  A
C223        O224   1.276       .  A
C223        C521   1.498       .  S
O224       Cr240   2.054       .  S
O225      Cr2352   2.087   1_455  S
O225        C226   1.293       .  A
C226        O227   1.252       .  A
C226        C408   1.497       .  S
O227       Cr241   1.948       .  S
O228       Cr241   1.963       .  S
O228       C2341   1.257   1_455  A
C229       O2340   1.257       .  A
C229        C251   1.399       .  S
O230       Cr239   1.944       .  S
O230        C238   1.251       .  A
O231       Cr239   1.948       .  S
O231        C232   1.252       .  A
C232        O233   1.293       .  A
C232        C336   1.496       .  S
O233       Cr240   2.087       .  S
O234      Cr2352   2.045   1_455  S
O234        C235   1.276       .  A
C235        O236   1.248       .  A
C235        C267   1.504       .  S
O236       Cr241   1.985       .  S
O237       Cr241   1.927       .  S
O237       C2350   1.248   1_455  A
C238       O2349   1.248       .  A
Cr239       O242   1.792       .  S
Cr240      O2337   2.087       .  S
Cr240      O2346   2.045       .  S
Cr240       O242   1.730       .  S
Cr241      O2354   1.799   1_455  S
O242      Cr2353   1.798       .  S
O243       Cr261   1.961       .  S
O243       C2363   1.257   1_455  A
O244       Cr261   1.940       .  S
O244        C245   1.250       .  A
C245        O246   1.294       .  A
C245        C411   1.502       .  S
O246      Cr2374   2.099   1_455  S
O247       Cr262   2.036       .  S
O247        C248   1.273       .  A
C248        O249   1.248       .  A
C248        C518   1.498       .  S
O249       Cr263   1.983       .  S
O250       Cr263   1.924       .  S
O250        C251   1.250       .  A
C251       O2355   1.257       .  A
O252       Cr261   1.924       .  S
O252       C2372   1.249   1_455  A
O253       Cr261   1.990       .  S
O253        C254   1.251       .  A
C254        O255   1.271       .  A
C254        C430   1.494       .  S
O255      Cr2374   2.025   1_455  S
O256       Cr262   2.094       .  S
O256        C257   1.295       .  A
C257        O258   1.251       .  A
C257        C487   1.498       .  S
O258       Cr263   1.942       .  S
O259       Cr263   1.955       .  S
O259        C260   1.255       .  A
C260       O2364   1.249       .  A
Cr261      O2376   1.790   1_455  S
Cr262      O2358   2.098       .  S
Cr262      O2367   2.024       .  S
Cr262       O264   1.730       .  S
Cr263       O264   1.791       .  S
O264      Cr2373   1.790       .  S
O265       Cr283   1.961       .  S
O265        C273   1.257       .  A
O266       Cr283   1.937       .  S
O266        C267   1.250       .  A
C267        O268   1.297       .  A
O268       Cr284   2.106       .  S
O269       Cr284   2.044       .  S
O269        C270   1.276       .  A
C270        O271   1.250       .  A
O271       Cr285   1.990       .  S
O272       Cr285   1.917       .  S
O272        C273   1.248       .  A
C273       C2451   1.394   1_455  S
O274       Cr283   1.919       .  S
O274        C282   1.249       .  A
O275       Cr283   1.988       .  S
O275        C276   1.250       .  A
C276        O277   1.276       .  A
O277       Cr284   2.042       .  S
O278       Cr284   2.105       .  S
O278        C279   1.296       .  A
C279        O280   1.250       .  A
O280       Cr285   1.936       .  S
O281       Cr285   1.963       .  S
O281        C282   1.257       .  A
C282        C955   1.397   1_554  S
Cr283       O286   1.787       .  S
Cr284       O286   1.726       .  S
Cr285       O286   1.787       .  S
O287       Cr305   1.925       .  S
O287        C295   1.248       .  A
O288       Cr305   1.973       .  S
O288        C289   1.248       .  A
C289        O290   1.283       .  A
O290       Cr306   2.072       .  S
O291       Cr306   2.113       .  S
O291        C292   1.298       .  A
C292        O293   1.250       .  A
O293       Cr307   1.935       .  S
O294       Cr307   1.949       .  S
O294        C295   1.253       .  A
C295       C1461   1.381   1_545  S
O296       Cr305   1.949       .  S
O296        C304   1.254       .  A
O297       Cr305   1.944       .  S
O297        C298   1.252       .  A
C298        O299   1.297       .  A
O299       Cr306   2.110       .  S
O300       Cr306   2.075       .  S
O300        C301   1.282       .  A
C301        O302   1.247       .  A
O302       Cr307   1.973       .  S
O303       Cr307   1.918       .  S
O303        C304   1.246       .  A
C304       C2495   1.389   1_455  S
Cr305       O308   1.790       .  S
Cr306       O308   1.731       .  S
Cr307       O308   1.788       .  S
O309       Cr327   1.925       .  S
O309        C317   1.249       .  A
O310       Cr327   1.984       .  S
O310        C311   1.248       .  A
C311        O312   1.276       .  A
O312       Cr328   2.044       .  S
O313       Cr328   2.078       .  S
O313        C314   1.290       .  A
C314        O315   1.253       .  A
O315       Cr329   1.947       .  S
O316       Cr329   1.963       .  S
O316        C317   1.257       .  A
C317        C986   1.401   1_554  S
O318       Cr327   1.960       .  S
O318        C326   1.256       .  A
O319       Cr327   1.948       .  S
O319        C320   1.253       .  A
C320        O321   1.291       .  A
O321       Cr328   2.082       .  S
O322       Cr328   2.041       .  S
O322        C323   1.276       .  A
C323        O324   1.249       .  A
O324       Cr329   1.986       .  S
O325       Cr329   1.922       .  S
O325        C326   1.248       .  A
C326       C1417   1.398   1_545  S
Cr327       O330   1.794       .  S
Cr328       O330   1.728       .  S
Cr329       O330   1.794       .  S
O331       Cr349   1.919       .  S
O331        C339   1.248       .  A
O332       Cr349   1.977       .  S
O332        C333   1.248       .  A
C333        O334   1.279       .  A
O334       Cr350   2.063       .  S
O335       Cr350   2.093       .  S
O335        C336   1.295       .  A
C336        O337   1.251       .  A
O337       Cr351   1.940       .  S
O338       Cr351   1.961       .  S
O338        C339   1.256       .  A
C339       C2385   1.395       .  S
O340       Cr349   1.952       .  S
O340        C348   1.254       .  A
O341       Cr349   1.951       .  S
O341        C342   1.254       .  A
C342        O343   1.294       .  A
O343       Cr350   2.097       .  S
O344       Cr350   2.058       .  S
O344        C345   1.280       .  A
C345        O346   1.247       .  A
O346       Cr351   1.980       .  S
O347       Cr351   1.925       .  S
O347        C348   1.248       .  A
C348       C1030   1.395   1_554  S
Cr349       O352   1.785       .  S
Cr350       O352   1.729       .  S
Cr351       O352   1.798       .  S
O353       Cr371   1.959       .  S
O353        C361   1.256       .  A
O354       Cr371   1.937       .  S
O354        C355   1.251       .  A
C355        O356   1.299       .  A
O356       Cr372   2.114       .  S
O357       Cr372   2.065       .  S
O357        C358   1.280       .  A
C358        O359   1.248       .  A
O359       Cr373   1.972       .  S
O360       Cr373   1.922       .  S
O360        C361   1.248       .  A
C361       C1382   1.396       .  S
O362       Cr371   1.919       .  S
O362        C370   1.246       .  A
O363       Cr371   1.974       .  S
O363        C364   1.248       .  A
C364        O365   1.281       .  A
O365       Cr372   2.067       .  S
O366       Cr372   2.116       .  S
O366        C367   1.299       .  A
C367        O368   1.252       .  A
O368       Cr373   1.943       .  S
O369       Cr373   1.953       .  S
O369        C370   1.255       .  A
C370       C1008   1.391   1_554  S
Cr371       O374   1.787       .  S
Cr372       O374   1.731       .  S
Cr373       O374   1.785       .  S
O375       Cr393   1.949       .  S
O375        C383   1.254       .  A
O376       Cr393   1.943       .  S
O376        C377   1.252       .  A
C377        O378   1.295       .  A
O378       Cr394   2.092       .  S
O379       Cr394   2.053       .  S
O379        C380   1.277       .  A
C380        O381   1.249       .  A
O381       Cr395   1.985       .  S
O382       Cr395   1.921       .  S
O382        C383   1.247       .  A
C383       C2416   1.390       .  S
O384       Cr393   1.919       .  S
O384        C392   1.249       .  A
O385       Cr393   1.967       .  S
O385        C386   1.246       .  A
C386        O387   1.281       .  A
O387       Cr394   2.068       .  S
O388       Cr394   2.107       .  S
O388        C389   1.296       .  A
C389        O390   1.251       .  A
O390       Cr395   1.942       .  S
O391       Cr395   1.957       .  S
O391        C392   1.257       .  A
C392       C1571   1.393   1_545  S
Cr393       O396   1.791       .  S
Cr394       O396   1.726       .  S
Cr395       O396   1.789       .  S
O397       Cr415   1.926       .  S
O397        C405   1.249       .  A
O398       Cr415   1.988       .  S
O398        C399   1.248       .  A
C399        O400   1.275       .  A
O400       Cr416   2.045       .  S
O401       Cr416   2.084       .  S
O401        C402   1.292       .  A
C402        O403   1.252       .  A
O403       Cr417   1.951       .  S
O404       Cr417   1.947       .  S
O404        C405   1.253       .  A
C405       C1351   1.380       .  S
O406       Cr415   1.952       .  S
O406        C414   1.254       .  A
O407       Cr415   1.947       .  S
O407        C408   1.252       .  A
C408        O409   1.293       .  A
O409       Cr416   2.087       .  S
O410       Cr416   2.042       .  S
O410        C411   1.275       .  A
C411        O412   1.248       .  A
O412       Cr417   1.984       .  S
O413       Cr417   1.929       .  S
O413        C414   1.250       .  A
C414       C2636   1.387   1_455  S
Cr415       O418   1.798       .  S
Cr416       O418   1.730       .  S
Cr417       O418   1.799       .  S
O419       Cr437   1.916       .  S
O419        C427   1.248       .  A
O420       Cr437   1.975       .  S
O420        C421   1.248       .  A
C421        O422   1.278       .  A
O422       Cr438   2.058       .  S
O423       Cr438   2.083       .  S
O423        C424   1.292       .  A
C424        O425   1.251       .  A
O425       Cr439   1.940       .  S
O426       Cr439   1.963       .  S
O426        C427   1.258       .  A
C427        C810   1.395       .  S
O428       Cr437   1.955       .  S
O428        C436   1.254       .  A
O429       Cr437   1.941       .  S
O429        C430   1.253       .  A
C430        O431   1.291       .  A
O431       Cr438   2.086       .  S
O432       Cr438   2.053       .  S
O432        C433   1.279       .  A
C433        O434   1.247       .  A
O434       Cr439   1.979       .  S
O435       Cr439   1.927       .  S
O435        C436   1.249       .  A
C436       C2605   1.398   1_455  S
Cr437       O440   1.783       .  S
Cr438       O440   1.731       .  S
Cr439       O440   1.794       .  S
O441       Cr459   1.952       .  S
O441        C449   1.254       .  A
O442       Cr459   1.946       .  S
O442        C443   1.253       .  A
C443        O444   1.293       .  A
O444       Cr460   2.086       .  S
O445       Cr460   2.044       .  S
O445        C446   1.275       .  A
C446        O447   1.250       .  A
O447       Cr461   1.988       .  S
O448       Cr461   1.920       .  S
O448        C449   1.247       .  A
C449       C1527   1.392   1_545  S
O450       Cr459   1.923       .  S
O450        C458   1.249       .  A
O451       Cr459   1.968       .  S
O451        C452   1.247       .  A
C452        O453   1.279       .  A
O453       Cr460   2.059       .  S
O454       Cr460   2.101       .  S
O454        C455   1.295       .  A
C455        O456   1.250       .  A
O456       Cr461   1.938       .  S
O457       Cr461   1.965       .  S
O457        C458   1.258       .  A
C458        C845   1.400       .  S
Cr459       O462   1.789       .  S
Cr460       O462   1.730       .  S
Cr461       O462   1.788       .  S
O463       Cr481   1.921       .  S
O463        C471   1.248       .  A
O464       Cr481   1.966       .  S
O464        C465   1.245       .  A
C465        O466   1.284       .  A
O466       Cr482   2.082       .  S
O467       Cr482   2.105       .  S
O467        C468   1.296       .  A
C468        O469   1.253       .  A
O469       Cr483   1.949       .  S
O470       Cr483   1.951       .  S
O470        C471   1.255       .  A
C471       C1505   1.392       .  S
O472       Cr481   1.950       .  S
O472        C480   1.254       .  A
O473       Cr481   1.946       .  S
O473        C474   1.253       .  A
C474        O475   1.295       .  A
O475       Cr482   2.095       .  S
O476       Cr482   2.074       .  S
O476        C477   1.282       .  A
C477        O478   1.247       .  A
O478       Cr483   1.972       .  S
O479       Cr483   1.920       .  S
O479        C480   1.247       .  A
C480        C898   1.390       .  S
Cr481       O484   1.795       .  S
Cr482       O484   1.728       .  S
Cr483       O484   1.789       .  S
O485       Cr503   1.964       .  S
O485        C493   1.259       .  A
O486       Cr503   1.948       .  S
O486        C487   1.252       .  A
C487        O488   1.293       .  A
O488       Cr504   2.089       .  S
O489       Cr504   2.057       .  S
O489        C490   1.277       .  A
C490        O491   1.246       .  A
O491       Cr505   1.969       .  S
O492       Cr505   1.920       .  S
O492        C493   1.248       .  A
C493       C2548   1.398       .  S
O494       Cr503   1.923       .  S
O494        C502   1.247       .  A
O495       Cr503   1.983       .  S
O495        C496   1.248       .  A
C496        O497   1.277       .  A
O497       Cr504   2.049       .  S
O498       Cr504   2.083       .  S
O498        C499   1.292       .  A
C499        O500   1.253       .  A
O500       Cr505   1.949       .  S
O501       Cr505   1.951       .  S
O501        C502   1.254       .  A
C502        C876   1.394       .  S
Cr503       O506   1.795       .  S
Cr504       O506   1.728       .  S
Cr505       O506   1.791       .  S
O507       Cr525   1.922       .  S
O507        C515   1.247       .  A
O508       Cr525   1.985       .  S
O508        C509   1.248       .  A
C509        O510   1.275       .  A
O510       Cr526   2.044       .  S
O511       Cr526   2.081       .  S
O511        C512   1.291       .  A
C512        O513   1.253       .  A
O513       Cr527   1.944       .  S
O514       Cr527   1.955       .  S
O514        C515   1.255       .  A
C515       C1448   1.396       .  S
O516       Cr525   1.957       .  S
O516        C524   1.255       .  A
O517       Cr525   1.935       .  S
O517        C518   1.250       .  A
C518        O519   1.294       .  A
O519       Cr526   2.098       .  S
O520       Cr526   2.053       .  S
O520        C521   1.278       .  A
C521        O522   1.248       .  A
O522       Cr527   1.970       .  S
O523       Cr527   1.925       .  S
O523        C524   1.248       .  A
C524       C2526   1.386       .  S
Cr525       O528   1.788       .  S
Cr526       O528   1.733       .  S
Cr527       O528   1.791       .  S
O529       Cr547   1.948       .  S
O529        C537   1.254   1_556  A
O530       Cr547   1.943       .  S
O530        C531   1.252       .  A
C531        O532   1.300       .  A
C531       C1005   1.513       .  S
O533       Cr548   2.112       .  S
O533        C534   1.298       .  A
C534        O535   1.251       .  A
C534        C892   1.506       .  S
O535       Cr549   1.936       .  S
O536       Cr549   1.945       .  S
C537        C590   1.388       .  S
O538       Cr547   1.921       .  S
O538        C546   1.247       .  A
O539       Cr547   1.972       .  S
O539        C540   1.247       .  A
C540        O541   1.281       .  A
C540       C1024   1.509       .  S
O542       Cr548   2.080       .  S
O542        C543   1.284       .  A
C543        O544   1.246       .  A
C543        C873   1.516       .  S
O544       Cr549   1.971       .  S
O545       Cr549   1.918       .  S
C546        C568   1.376   1_556  S
Cr548       O550   1.730       .  S
Cr549       O550   1.789       .  S
O551       Cr569   1.967       .  S
O552       Cr569   1.935       .  S
O552        C553   1.250       .  A
C553        O554   1.296       .  A
C553        C839   1.502       .  S
O554       Cr570   2.104       .  S
O555        C556   1.278       .  A
C556        O557   1.245       .  A
C556        C980   1.502       .  S
O557       Cr571   1.966       .  S
O558       Cr571   1.924       .  S
O558        C559   1.250       .  A
C559        C603   1.399       .  S
O560       Cr569   1.919       .  S
O561       Cr569   1.988       .  S
O561        C562   1.250       .  A
C562        O563   1.275       .  A
C562        C870   1.506       .  S
O563       Cr570   2.045       .  S
O564        C565   1.294       .  A
C565        O566   1.251       .  A
C565       C1027   1.493       .  S
O566       Cr571   1.940       .  S
O567       Cr571   1.943       .  S
O567        C568   1.251   1_556  A
Cr569       O572   1.787       .  S
Cr570       O572   1.729       .  S
O573       Cr591   1.926       .  S
O573        C581   1.249       .  A
O574       Cr591   1.969       .  S
O574        C575   1.247       .  A
C575        O576   1.280       .  A
C575        C949   1.503       .  S
O577       Cr592   2.104       .  S
O577        C578   1.295       .  A
C578        O579   1.249       .  A
C578        C804   1.502       .  S
O579       Cr593   1.935       .  S
O580       Cr593   1.955       .  S
C581        C612   1.387   1_556  S
O582       Cr591   1.947       .  S
O582        C590   1.254   1_556  A
O583       Cr591   1.949       .  S
O583        C584   1.253       .  A
C584        O585   1.293       .  A
C584       C1002   1.497       .  S
O586       Cr592   2.048       .  S
O586        C587   1.276       .  A
C587        O588   1.249       .  A
C587        C895   1.509       .  S
O588       Cr593   1.991       .  S
O589       Cr593   1.920       .  S
Cr592       O594   1.731       .  S
Cr593       O594   1.793       .  S
O595       Cr613   1.924       .  S
O595        C603   1.249       .  A
O596       Cr613   1.982       .  S
O596        C597   1.247       .  A
C597        O598   1.274       .  A
C597        C983   1.500       .  S
O599       Cr614   2.074       .  S
O599        C600   1.289       .  A
C600        O601   1.253       .  A
C600        C842   1.489       .  S
O601       Cr615   1.948       .  S
O602       Cr615   1.962       .  S
O604       Cr613   1.955       .  S
O604        C612   1.254   1_556  A
O605       Cr613   1.944       .  S
O605        C606   1.251       .  A
C606        O607   1.291       .  A
C606        C952   1.488       .  S
O608       Cr614   2.040       .  S
O608        C609   1.276       .  A
C609        O610   1.249       .  A
C609        C807   1.503       .  S
O610       Cr615   1.989       .  S
O611       Cr615   1.925       .  S
Cr614       O616   1.730       .  S
Cr615       O616   1.796       .  S
O617       Cr635   1.923       .  S
O617        C625   1.248       .  A
O618       Cr635   1.965       .  S
O618        C619   1.245       .  A
C619        O620   1.283       .  A
C619        C993   1.510       .  S
O620       Cr636   2.076       .  S
O621      Cr1692   2.101   1_545  S
O621        C622   1.295       .  A
C622        O623   1.253       .  A
C622        C974   1.506       .  S
O623       Cr637   1.947       .  S
O624       Cr637   1.952       .  S
O624       C1681   1.255   1_545  A
C625       O1680   1.255       .  A
C625        C678   1.394       .  S
O626       Cr635   1.952       .  S
O626        C634   1.254       .  A
O627       Cr635   1.943       .  S
O627        C628   1.253       .  A
C628        O629   1.294       .  A
C628        C930   1.496       .  S
O629       Cr636   2.092       .  S
O630      Cr1692   2.075   1_545  S
O630        C631   1.282       .  A
C631        O632   1.247       .  A
C631        C817   1.515       .  S
O632       Cr637   1.973       .  S
O633       Cr637   1.920       .  S
O633       C1690   1.247   1_545  A
C634       O1689   1.247       .  A
C634        C647   1.391       .  S
Cr635       O638   1.793       .  S
Cr636      O1677   2.101       .  S
Cr636      O1686   2.072       .  S
Cr636       O638   1.730       .  S
Cr637      O1694   1.788   1_545  S
O638      Cr1693   1.788       .  S
O639       Cr657   1.952       .  S
O639        C647   1.254       .  A
O640       Cr657   1.940       .  S
O640        C641   1.252       .  A
C641        O642   1.296       .  A
C641        C927   1.504       .  S
O642       Cr658   2.105       .  S
O643      Cr1714   2.052   1_545  S
O643        C644   1.278       .  A
C644        O645   1.249       .  A
C644        C820   1.510       .  S
O645       Cr659   1.988       .  S
O646       Cr659   1.918       .  S
O646       C1703   1.246   1_545  A
C647       O1702   1.247       .  A
O648       Cr657   1.920       .  S
O648        C656   1.249       .  A
O649       Cr657   1.973       .  S
O649        C650   1.248       .  A
C650        O651   1.278       .  A
C650        C886   1.503       .  S
O651       Cr658   2.058       .  S
O652      Cr1714   2.113   1_545  S
O652        C653   1.298       .  A
C653        O654   1.249       .  A
C653        C851   1.505       .  S
O654       Cr659   1.932       .  S
O655       Cr659   1.966       .  S
O655       C1712   1.258   1_545  A
C656       O1711   1.258       .  A
C656        C700   1.399       .  S
Cr657       O660   1.782       .  S
Cr658      O1699   2.046       .  S
Cr658      O1708   2.110       .  S
Cr658       O660   1.730       .  S
Cr659      O1716   1.789   1_545  S
O660      Cr1715   1.789       .  S
O661       Cr679   1.963       .  S
O661        C669   1.257       .  A
O662       Cr679   1.942       .  S
O662        C663   1.251       .  A
C663        O664   1.294       .  A
C663       C1037   1.504       .  S
O664       Cr680   2.100       .  S
O665      Cr1736   2.063   1_545  S
O665        C666   1.280       .  A
C666        O667   1.246       .  A
C666        C914   1.504       .  S
O667       Cr681   1.968       .  S
O668       Cr681   1.923       .  S
O668       C1725   1.250   1_545  A
C669       O1724   1.249       .  A
C669        C691   1.399       .  S
O670       Cr679   1.923       .  S
O670        C678   1.247       .  A
O671       Cr679   1.987       .  S
O671        C672   1.249       .  A
C672        O673   1.277       .  A
C672        C996   1.511       .  S
O673       Cr680   2.052       .  S
O674      Cr1736   2.087   1_545  S
O674        C675   1.293       .  A
C675        O676   1.253       .  A
C675        C971   1.494       .  S
O676       Cr681   1.946       .  S
O677       Cr681   1.952       .  S
O677       C1734   1.254   1_545  A
C678       O1733   1.254       .  A
Cr679       O682   1.791       .  S
Cr680      O1721   2.067       .  S
Cr680      O1730   2.085       .  S
Cr680       O682   1.730       .  S
Cr681      O1738   1.789   1_545  S
O682      Cr1737   1.790       .  S
O683       Cr701   1.925       .  S
O683       C1747   1.250   1_545  A
O684       Cr701   1.985       .  S
O684        C685   1.248       .  A
C685        O686   1.277       .  A
C685        C917   1.506       .  S
O686      Cr1758   2.048   1_545  S
O687       Cr702   2.076       .  S
O687        C688   1.290       .  A
C688        O689   1.253       .  A
C688       C1040   1.490       .  S
O689       Cr703   1.948       .  S
O690       Cr703   1.961       .  S
O690        C691   1.257       .  A
C691       O1739   1.249       .  A
O692       Cr701   1.961       .  S
O692       C1756   1.256   1_545  A
O693       Cr701   1.947       .  S
O693        C694   1.252       .  A
C694        O695   1.290       .  A
C694        C848   1.491       .  S
O695      Cr1758   2.078   1_545  S
O696       Cr702   2.047       .  S
O696        C697   1.277       .  A
C697        O698   1.248       .  A
C697        C883   1.507       .  S
O698       Cr703   1.986       .  S
O699       Cr703   1.923       .  S
O699        C700   1.249       .  A
C700       O1748   1.256       .  A
Cr701      O1760   1.793   1_545  S
Cr702      O1742   2.050       .  S
Cr702      O1751   2.079       .  S
Cr702       O704   1.728       .  S
Cr703       O704   1.794       .  S
O704      Cr1757   1.794       .  S
O705       Cr723   1.949       .  S
O705        C713   1.254       .  A
O706       Cr723   1.946       .  S
O706        C707   1.252       .  A
C707        O708   1.294       .  A
C707        C905   1.497       .  S
O708       Cr724   2.091       .  S
O709      Cr2836   2.055   1_455  S
O709        C710   1.277       .  A
C710        O711   1.249       .  A
C710        C826   1.514       .  S
O711       Cr725   1.990       .  S
O712       Cr725   1.918       .  S
O712       C2825   1.245   1_455  A
C713       O2824   1.245       .  A
C713        C744   1.389       .  S
O714       Cr723   1.920       .  S
O714        C722   1.248       .  A
O715       Cr723   1.971       .  S
O715        C716   1.247       .  A
C716        O717   1.281       .  A
C716       C1018   1.507       .  S
O717       Cr724   2.066       .  S
O718      Cr2836   2.110   1_455  S
O718        C719   1.298       .  A
C719        O720   1.249       .  A
C719        C961   1.507       .  S
O720       Cr725   1.938       .  S
O721       Cr725   1.959       .  S
O721       C2834   1.256   1_455  A
C722       O2833   1.256       .  A
C722        C788   1.383       .  S
Cr723       O726   1.794       .  S
Cr724      O2821   2.053       .  S
Cr724      O2830   2.109       .  S
Cr724       O726   1.728       .  S
Cr725      O2838   1.791   1_455  S
O726      Cr2837   1.791       .  S
O727       Cr745   1.927       .  S
O727        C735   1.248       .  A
O728       Cr745   1.973       .  S
O728        C729   1.247       .  A
C729        O730   1.283       .  A
C729        C861   1.515       .  S
O730       Cr746   2.075       .  S
O731      Cr2858   2.112   1_455  S
O731        C732   1.298       .  A
C732        O733   1.250       .  A
C732        C798   1.505       .  S
O733       Cr747   1.935       .  S
O734       Cr747   1.947       .  S
O734       C2847   1.252   1_455  A
C735       O2846   1.252       .  A
C735        C766   1.380       .  S
O736       Cr745   1.948       .  S
O736        C744   1.254       .  A
O737       Cr745   1.947       .  S
O737        C738   1.253       .  A
C738        O739   1.298       .  A
C738        C908   1.511       .  S
O739       Cr746   2.110       .  S
O740      Cr2858   2.080   1_455  S
O740        C741   1.283       .  A
C741        O742   1.246       .  A
C741        C829   1.517       .  S
O742       Cr747   1.972       .  S
O743       Cr747   1.919       .  S
O743       C2856   1.247   1_455  A
C744       O2855   1.247       .  A
Cr745       O748   1.790       .  S
Cr746      O2843   2.113       .  S
Cr746      O2852   2.079       .  S
Cr746       O748   1.731       .  S
Cr747      O2860   1.789   1_455  S
O748      Cr2859   1.790       .  S
O749       Cr767   1.925       .  S
O749        C757   1.249       .  A
O750       Cr767   1.965       .  S
O750        C751   1.245       .  A
C751        O752   1.276       .  A
C751       C1049   1.499       .  S
O752       Cr768   2.055       .  S
O753      Cr2880   2.084   1_455  S
O753        C754   1.292       .  A
C754        O755   1.252       .  A
C754        C936   1.495       .  S
O755       Cr769   1.948       .  S
O756       Cr769   1.963       .  S
O756       C2869   1.258   1_455  A
C757       O2868   1.258       .  A
C757        C779   1.401       .  S
O758       Cr767   1.943       .  S
O758        C766   1.250       .  A
O759       Cr767   1.950       .  S
O759        C760   1.253       .  A
C760        O761   1.293       .  A
C760        C864   1.496       .  S
O761       Cr768   2.086       .  S
O762      Cr2880   2.046   1_455  S
O762        C763   1.277       .  A
C763        O764   1.249       .  A
C763        C795   1.505       .  S
O764       Cr769   1.986       .  S
O765       Cr769   1.927       .  S
O765       C2878   1.248   1_455  A
C766       O2877   1.248       .  A
Cr767       O770   1.793       .  S
Cr768      O2865   2.085       .  S
Cr768      O2874   2.046       .  S
Cr768       O770   1.731       .  S
Cr769      O2882   1.797   1_455  S
O770      Cr2881   1.798       .  S
O771       Cr789   1.961       .  S
O771       C2891   1.257   1_455  A
O772       Cr789   1.941       .  S
O772        C773   1.250       .  A
C773        O774   1.293       .  A
C773        C939   1.501       .  S
O774      Cr2902   2.096   1_455  S
O775       Cr790   2.038       .  S
O775        C776   1.274       .  A
C776        O777   1.248       .  A
C776       C1046   1.498       .  S
O777       Cr791   1.981       .  S
O778       Cr791   1.927       .  S
O778        C779   1.250       .  A
C779       O2883   1.257       .  A
O780       Cr789   1.924       .  S
O780       C2900   1.249   1_455  A
O781       Cr789   1.991       .  S
O781        C782   1.252       .  A
C782        O783   1.271       .  A
C782        C958   1.495       .  S
O783      Cr2902   2.025   1_455  S
O784       Cr790   2.090       .  S
O784        C785   1.294       .  A
C785        O786   1.251       .  A
C785       C1015   1.495       .  S
O786       Cr791   1.942       .  S
O787       Cr791   1.953       .  S
O787        C788   1.254       .  A
C788       O2892   1.248       .  A
Cr789      O2904   1.789   1_455  S
Cr790      O2886   2.095       .  S
Cr790      O2895   2.026       .  S
Cr790       O792   1.731       .  S
Cr791       O792   1.792       .  S
O792      Cr2901   1.789       .  S
O793       Cr811   1.959       .  S
O793        C801   1.257       .  A
O794       Cr811   1.938       .  S
O794        C795   1.251       .  A
C795        O796   1.297       .  A
O796       Cr812   2.107       .  S
O797       Cr812   2.044       .  S
O797        C798   1.276       .  A
C798        O799   1.249       .  A
O799       Cr813   1.988       .  S
O800       Cr813   1.918       .  S
O800        C801   1.248       .  A
C801       C2979   1.393   1_455  S
O802       Cr811   1.920       .  S
O802        C810   1.249       .  A
O803       Cr811   1.987       .  S
O803        C804   1.249       .  A
C804        O805   1.276       .  A
O805       Cr812   2.041       .  S
O806       Cr812   2.108       .  S
O806        C807   1.297       .  A
C807        O808   1.249       .  A
O808       Cr813   1.933       .  S
O809       Cr813   1.960       .  S
O809        C810   1.256       .  A
Cr811       O814   1.786       .  S
Cr812       O814   1.726       .  S
Cr813       O814   1.787       .  S
O815       Cr833   1.924       .  S
O815        C823   1.248       .  A
O816       Cr833   1.975       .  S
O816        C817   1.248       .  A
C817        O818   1.283       .  A
O818       Cr834   2.075       .  S
O819       Cr834   2.115       .  S
O819        C820   1.299       .  A
C820        O821   1.251       .  A
O821       Cr835   1.939       .  S
O822       Cr835   1.949       .  S
O822        C823   1.253       .  A
C823       C1989   1.381   1_545  S
O824       Cr833   1.950       .  S
O824        C832   1.254       .  A
O825       Cr833   1.949       .  S
O825        C826   1.253       .  A
C826        O827   1.298       .  A
O827       Cr834   2.112       .  S
O828       Cr834   2.078       .  S
O828        C829   1.283       .  A
C829        O830   1.247       .  A
O830       Cr835   1.974       .  S
O831       Cr835   1.917       .  S
O831        C832   1.246       .  A
C832       C3023   1.389   1_455  S
Cr833       O836   1.792       .  S
Cr834       O836   1.730       .  S
Cr835       O836   1.790       .  S
O837       Cr855   1.924       .  S
O837        C845   1.249       .  A
O838       Cr855   1.982       .  S
O838        C839   1.247       .  A
C839        O840   1.276       .  A
O840       Cr856   2.044       .  S
O841       Cr856   2.077       .  S
O841        C842   1.290       .  A
C842        O843   1.252       .  A
O843       Cr857   1.944       .  S
O844       Cr857   1.964       .  S
O844        C845   1.257       .  A
O846       Cr855   1.958       .  S
O846        C854   1.256       .  A
O847       Cr855   1.946       .  S
O847        C848   1.252       .  A
C848        O849   1.290       .  A
O849       Cr856   2.079       .  S
O850       Cr856   2.045       .  S
O850        C851   1.277       .  A
C851        O852   1.248       .  A
O852       Cr857   1.986       .  S
O853       Cr857   1.921       .  S
O853        C854   1.248       .  A
C854       C1945   1.395   1_545  S
Cr855       O858   1.792       .  S
Cr856       O858   1.728       .  S
Cr857       O858   1.794       .  S
O859       Cr877   1.920       .  S
O859        C867   1.247       .  A
O860       Cr877   1.975       .  S
O860        C861   1.247       .  A
C861        O862   1.281       .  A
O862       Cr878   2.072       .  S
O863       Cr878   2.090       .  S
O863        C864   1.294       .  A
C864        O865   1.252       .  A
O865       Cr879   1.944       .  S
O866       Cr879   1.954       .  S
O866        C867   1.254       .  A
C867       C2913   1.392       .  S
O868       Cr877   1.953       .  S
O868        C876   1.255       .  A
O869       Cr877   1.948       .  S
O869        C870   1.254       .  A
C870        O871   1.295       .  A
O871       Cr878   2.100       .  S
O872       Cr878   2.081       .  S
O872        C873   1.284       .  A
C873        O874   1.246       .  A
O874       Cr879   1.968       .  S
O875       Cr879   1.922       .  S
O875        C876   1.247       .  A
Cr877       O880   1.788       .  S
Cr878       O880   1.730       .  S
Cr879       O880   1.795       .  S
O881       Cr899   1.965       .  S
O881        C889   1.258       .  A
O882       Cr899   1.933       .  S
O882        C883   1.249       .  A
C883        O884   1.299       .  A
O884       Cr900   2.114       .  S
O885       Cr900   2.057       .  S
O885        C886   1.278       .  A
C886        O887   1.248       .  A
O887       Cr901   1.974       .  S
O888       Cr901   1.921       .  S
O888        C889   1.249       .  A
C889       C1910   1.399       .  S
O890       Cr899   1.919       .  S
O890        C898   1.246       .  A
O891       Cr899   1.988       .  S
O891        C892   1.249       .  A
C892        O893   1.277       .  A
O893       Cr900   2.046       .  S
O894       Cr900   2.111       .  S
O894        C895   1.297       .  A
C895        O896   1.252       .  A
O896       Cr901   1.942       .  S
O897       Cr901   1.951       .  S
O897        C898   1.254       .  A
Cr899       O902   1.788       .  S
Cr900       O902   1.729       .  S
Cr901       O902   1.783       .  S
O903       Cr921   1.947       .  S
O903        C911   1.254       .  A
O904       Cr921   1.945       .  S
O904        C905   1.252       .  A
C905        O906   1.295       .  A
O906       Cr922   2.093       .  S
O907       Cr922   2.053       .  S
O907        C908   1.277       .  A
C908        O909   1.249       .  A
O909       Cr923   1.987       .  S
O910       Cr923   1.919       .  S
O910        C911   1.247       .  A
C911       C2944   1.388       .  S
O912       Cr921   1.922       .  S
O912        C920   1.249       .  A
O913       Cr921   1.965       .  S
O913        C914   1.246       .  A
C914        O915   1.280       .  A
O915       Cr922   2.065       .  S
O916       Cr922   2.107       .  S
O916        C917   1.297       .  A
C917        O918   1.250       .  A
O918       Cr923   1.940       .  S
O919       Cr923   1.959       .  S
O919        C920   1.257       .  A
C920       C2099   1.395   1_545  S
Cr921       O924   1.791       .  S
Cr922       O924   1.726       .  S
Cr923       O924   1.788       .  S
O925       Cr943   1.925       .  S
O925        C933   1.249       .  A
O926       Cr943   1.987       .  S
O926        C927   1.248       .  A
C927        O928   1.274       .  A
O928       Cr944   2.042       .  S
O929       Cr944   2.084       .  S
O929        C930   1.292       .  A
C930        O931   1.251       .  A
O931       Cr945   1.948       .  S
O932       Cr945   1.947       .  S
O932        C933   1.253       .  A
C933       C1879   1.381       .  S
O934       Cr943   1.952       .  S
O934        C942   1.254       .  A
O935       Cr943   1.946       .  S
O935        C936   1.251       .  A
C936        O937   1.292       .  A
O937       Cr944   2.085       .  S
O938       Cr944   2.042       .  S
O938        C939   1.274       .  A
C939        O940   1.248       .  A
O940       Cr945   1.983       .  S
O941       Cr945   1.930       .  S
O941        C942   1.250       .  A
C942       C3164   1.387   1_455  S
Cr943       O946   1.797       .  S
Cr944       O946   1.730       .  S
Cr945       O946   1.798       .  S
O947       Cr965   1.919       .  S
O947        C955   1.249       .  A
O948       Cr965   1.972       .  S
O948        C949   1.247       .  A
C949        O950   1.278       .  A
O950       Cr966   2.057       .  S
O951       Cr966   2.082       .  S
O951        C952   1.292       .  A
C952        O953   1.250       .  A
O953       Cr967   1.937       .  S
O954       Cr967   1.965       .  S
O954        C955   1.258       .  A
O956       Cr965   1.950       .  S
O956        C964   1.253       .  A
O957       Cr965   1.943       .  S
O957        C958   1.254       .  A
C958        O959   1.290       .  A
O959       Cr966   2.086       .  S
O960       Cr966   2.054       .  S
O960        C961   1.279       .  A
C961        O962   1.247       .  A
O962       Cr967   1.979       .  S
O963       Cr967   1.927       .  S
O963        C964   1.248       .  A
C964       C3133   1.396   1_455  S
Cr965       O968   1.781       .  S
Cr966       O968   1.732       .  S
Cr967       O968   1.795       .  S
O969       Cr987   1.951       .  S
O969        C977   1.254       .  A
O970       Cr987   1.947       .  S
O970        C971   1.253       .  A
C971        O972   1.293       .  A
O972       Cr988   2.086       .  S
O973       Cr988   2.046       .  S
O973        C974   1.275       .  A
C974        O975   1.250       .  A
O975       Cr989   1.987       .  S
O976       Cr989   1.920       .  S
O976        C977   1.246       .  A
C977       C2055   1.392   1_545  S
O978       Cr987   1.924       .  S
O978        C986   1.250       .  A
O979       Cr987   1.968       .  S
O979        C980   1.247       .  A
C980        O981   1.279       .  A
O981       Cr988   2.060       .  S
O982       Cr988   2.102       .  S
O982        C983   1.295       .  A
C983        O984   1.249       .  A
O984       Cr989   1.934       .  S
O985       Cr989   1.966       .  S
O985        C986   1.258       .  A
Cr987       O990   1.788       .  S
Cr988       O990   1.730       .  S
Cr989       O990   1.788       .  S
O991      Cr1009   1.919       .  S
O991        C999   1.248       .  A
O992      Cr1009   1.968       .  S
O992        C993   1.246       .  A
C993        O994   1.283       .  A
O994      Cr1010   2.073       .  S
O995      Cr1010   2.110       .  S
O995        C996   1.297       .  A
C996        O997   1.251       .  A
O997      Cr1011   1.945       .  S
O998      Cr1011   1.956       .  S
O998        C999   1.256       .  A
C999       C2033   1.392       .  S
O1000     Cr1009   1.949       .  S
O1000      C1008   1.254       .  A
O1001     Cr1009   1.945       .  S
O1001      C1002   1.252       .  A
C1002      O1003   1.294       .  A
O1003     Cr1010   2.093       .  S
O1004     Cr1010   2.057       .  S
O1004      C1005   1.279       .  A
C1005      O1006   1.248       .  A
O1006     Cr1011   1.986       .  S
O1007     Cr1011   1.922       .  S
O1007      C1008   1.247       .  A
Cr1009     O1012   1.791       .  S
Cr1010     O1012   1.726       .  S
Cr1011     O1012   1.791       .  S
O1013     Cr1031   1.957       .  S
O1013      C1021   1.256       .  A
O1014     Cr1031   1.951       .  S
O1014      C1015   1.253       .  A
C1015      O1016   1.292       .  A
O1016     Cr1032   2.083       .  S
O1017     Cr1032   2.067       .  S
O1017      C1018   1.280       .  A
C1018      O1019   1.246       .  A
O1019     Cr1033   1.967       .  S
O1020     Cr1033   1.922       .  S
O1020      C1021   1.247       .  A
C1021      C3076   1.396       .  S
O1022     Cr1031   1.923       .  S
O1022      C1030   1.247       .  A
O1023     Cr1031   1.970       .  S
O1023      C1024   1.247       .  A
C1024      O1025   1.280       .  A
O1025     Cr1032   2.067       .  S
O1026     Cr1032   2.084       .  S
O1026      C1027   1.292       .  A
C1027      O1028   1.253       .  A
O1028     Cr1033   1.949       .  S
O1029     Cr1033   1.954       .  S
O1029      C1030   1.255       .  A
Cr1031     O1034   1.793       .  S
Cr1032     O1034   1.731       .  S
Cr1033     O1034   1.794       .  S
O1035     Cr1053   1.922       .  S
O1035      C1043   1.247       .  A
O1036     Cr1053   1.985       .  S
O1036      C1037   1.248       .  A
C1037      O1038   1.275       .  A
O1038     Cr1054   2.044       .  S
O1039     Cr1054   2.081       .  S
O1039      C1040   1.291       .  A
C1040      O1041   1.253       .  A
O1041     Cr1055   1.944       .  S
O1042     Cr1055   1.953       .  S
O1042      C1043   1.254       .  A
C1043      C1976   1.394       .  S
O1044     Cr1053   1.957       .  S
O1044      C1052   1.255       .  A
O1045     Cr1053   1.935       .  S
O1045      C1046   1.250       .  A
C1046      O1047   1.294       .  A
O1047     Cr1054   2.099       .  S
O1048     Cr1054   2.056       .  S
O1048      C1049   1.279       .  A
C1049      O1050   1.247       .  A
O1050     Cr1055   1.968       .  S
O1051     Cr1055   1.927       .  S
O1051      C1052   1.250       .  A
C1052      C3054   1.388       .  S
Cr1053     O1056   1.787       .  S
Cr1054     O1056   1.733       .  S
Cr1055     O1056   1.792       .  S
O1057     Cr1075   1.949       .  S
O1057      C1065   1.254       .  A
O1058     Cr1075   1.942       .  S
O1058      C1059   1.252       .  A
C1059      O1060   1.299       .  A
C1059      C1533   1.511       .  S
O1060     Cr1604   2.115       .  S
O1061     Cr1076   2.111       .  S
O1061      C1062   1.298       .  A
C1062      O1063   1.250       .  A
C1062      C1420   1.505       .  S
O1063     Cr1077   1.935       .  S
O1064     Cr1077   1.945       .  S
O1064      C1593   1.252   1_554  A
C1065      O1592   1.247       .  A
C1065      C1118   1.389       .  S
O1066     Cr1075   1.921       .  S
O1066      C1074   1.247       .  A
O1067     Cr1075   1.972       .  S
O1067      C1068   1.247       .  A
C1068      O1069   1.282       .  A
C1068      C1552   1.511       .  S
O1069     Cr1604   2.070       .  S
O1070     Cr1076   2.080       .  S
O1070      C1071   1.284       .  A
C1071      O1072   1.246       .  A
C1071      C1401   1.516       .  S
O1072     Cr1077   1.970       .  S
O1073     Cr1077   1.918       .  S
O1073      C1602   1.247       .  A
C1074      O1601   1.253       .  A
C1074      C1096   1.375       .  S
Cr1075     O1606   1.790       .  S
Cr1076     O1588   2.077   1_554  S
Cr1076     O1597   2.107   1_554  S
Cr1076     O1078   1.730       .  S
Cr1077     O1078   1.789       .  S
O1078     Cr1603   1.790   1_554  S
O1079     Cr1097   1.967       .  S
O1079      C1615   1.258   1_554  A
O1080     Cr1097   1.936       .  S
O1080      C1081   1.250       .  A
C1081      O1082   1.296       .  A
C1081      C1367   1.503       .  S
O1082     Cr1098   2.104   1_554  S
O1083     Cr1626   2.062       .  S
O1083      C1084   1.278       .  A
C1084      O1085   1.245       .  A
C1084      C1508   1.502       .  S
O1085     Cr1099   1.966       .  S
O1086     Cr1099   1.924       .  S
O1086      C1087   1.250       .  A
C1087      O1607   1.258       .  A
C1087      C1131   1.400       .  S
O1088     Cr1097   1.919       .  S
O1088      C1624   1.246       .  A
O1089     Cr1097   1.987       .  S
O1089      C1090   1.250       .  A
C1090      O1091   1.274       .  A
C1090      C1398   1.506       .  S
O1091     Cr1098   2.045   1_554  S
O1092     Cr1626   2.092       .  S
O1092      C1093   1.295       .  A
C1093      O1094   1.252       .  A
C1093      C1555   1.495       .  S
O1094     Cr1099   1.942       .  S
O1095     Cr1099   1.942       .  S
O1095      C1096   1.251       .  A
C1096      O1616   1.247       .  A
Cr1097     O1100   1.787   1_554  S
Cr1098     O1611   2.061       .  S
Cr1098     O1620   2.090       .  S
Cr1098     O1100   1.729       .  S
Cr1099     O1628   1.790       .  S
O1100     Cr1627   1.789       .  S
O1101     Cr1119   1.926       .  S
O1101      C1109   1.249       .  A
O1102     Cr1119   1.968       .  S
O1102      C1103   1.247       .  A
C1103      O1104   1.279       .  A
C1103      C1477   1.502       .  S
O1104     Cr1648   2.061       .  S
O1105     Cr1120   2.103   1_554  S
O1105      C1106   1.295       .  A
C1106      O1107   1.249       .  A
C1106      C1332   1.503       .  S
O1107     Cr1121   1.936       .  S
O1108     Cr1121   1.956       .  S
O1108      C1637   1.255   1_554  A
C1109      O1636   1.255       .  A
C1109      C1140   1.387       .  S
O1110     Cr1119   1.948       .  S
O1110      C1118   1.254       .  A
O1111     Cr1119   1.948       .  S
O1111      C1112   1.252       .  A
C1112      O1113   1.293       .  A
C1112      C1530   1.497       .  S
O1113     Cr1648   2.089       .  S
O1114     Cr1120   2.050   1_554  S
O1114      C1115   1.277       .  A
C1115      O1116   1.249       .  A
C1115      C1423   1.511       .  S
O1116     Cr1121   1.991       .  S
O1117     Cr1121   1.921       .  S
O1117      C1646   1.247       .  A
C1118      O1645   1.247       .  A
Cr1119     O1650   1.793       .  S
Cr1120     O1632   2.064       .  S
Cr1120     O1641   2.090       .  S
Cr1120     O1122   1.731       .  S
Cr1121     O1122   1.793   1_554  S
O1122     Cr1647   1.795       .  S
O1123     Cr1141   1.924       .  S
O1123      C1131   1.249       .  A
O1124     Cr1141   1.983       .  S
O1124      C1125   1.247       .  A
C1125      O1126   1.274       .  A
C1125      C1511   1.502       .  S
O1126     Cr1670   2.042       .  S
O1127     Cr1142   2.075       .  S
O1127      C1128   1.289       .  A
C1128      O1129   1.253       .  A
C1128      C1370   1.489       .  S
O1129     Cr1143   1.947       .  S
O1130     Cr1143   1.963       .  S
O1130      C1659   1.257   1_554  A
C1131      O1658   1.257       .  A
O1132     Cr1141   1.954       .  S
O1132      C1140   1.254       .  A
O1133     Cr1141   1.945       .  S
O1133      C1134   1.251       .  A
C1134      O1135   1.291       .  A
C1134      C1480   1.489       .  S
O1135     Cr1670   2.078       .  S
O1136     Cr1142   2.039       .  S
O1136      C1137   1.276       .  A
C1137      O1138   1.249       .  A
C1137      C1335   1.502       .  S
O1138     Cr1143   1.989       .  S
O1139     Cr1143   1.925       .  S
O1139      C1668   1.249       .  A
C1140      O1667   1.249       .  A
Cr1141     O1672   1.795       .  S
Cr1142     O1654   2.042   1_554  S
Cr1142     O1663   2.080   1_554  S
Cr1142     O1144   1.730   1_554  S
Cr1143     O1144   1.796   1_554  S
O1144     Cr1669   1.794       .  S
O1145     Cr1163   1.924       .  S
O1145      C1153   1.248       .  A
O1146     Cr1163   1.964       .  S
O1146      C1147   1.245       .  A
C1147      O1148   1.282       .  A
C1147      C1521   1.509       .  S
O1148     Cr1164   2.074       .  S
O1149      C1150   1.295       .  A
C1150      O1151   1.253       .  A
C1150      C1502   1.507       .  S
O1151     Cr1165   1.949       .  S
O1152     Cr1165   1.951       .  S
C1153      C1206   1.394       .  S
O1154     Cr1163   1.952       .  S
O1154      C1162   1.254       .  A
O1155     Cr1163   1.943       .  S
O1155      C1156   1.253       .  A
C1156      O1157   1.294       .  A
C1156      C1458   1.496       .  S
O1157     Cr1164   2.093       .  S
O1158      C1159   1.282       .  A
C1159      O1160   1.247       .  A
C1159      C1345   1.516       .  S
O1160     Cr1165   1.973       .  S
O1161     Cr1165   1.921       .  S
C1162      C1175   1.392       .  S
Cr1163     O1166   1.792       .  S
Cr1164     O1166   1.731       .  S
O1167     Cr1185   1.953       .  S
O1167      C1175   1.255       .  A
O1168     Cr1185   1.942       .  S
O1168      C1169   1.252       .  A
C1169      O1170   1.296       .  A
C1169      C1455   1.505       .  S
O1170     Cr1186   2.106       .  S
O1171      C1172   1.278       .  A
C1172      O1173   1.249       .  A
C1172      C1348   1.509       .  S
O1173     Cr1187   1.987       .  S
O1174     Cr1187   1.919       .  S
O1176     Cr1185   1.920       .  S
O1176      C1184   1.249       .  A
O1177     Cr1185   1.974       .  S
O1177      C1178   1.248       .  A
C1178      O1179   1.278       .  A
C1178      C1414   1.503       .  S
O1179     Cr1186   2.057       .  S
O1180      C1181   1.298       .  A
C1181      O1182   1.249       .  A
C1181      C1379   1.504       .  S
O1182     Cr1187   1.931       .  S
O1183     Cr1187   1.966       .  S
C1184      C1228   1.399       .  S
Cr1185     O1188   1.782       .  S
Cr1186     O1188   1.730       .  S
O1189     Cr1207   1.963       .  S
O1189      C1197   1.257       .  A
O1190     Cr1207   1.943       .  S
O1190      C1191   1.251       .  A
C1191      O1192   1.294       .  A
C1191      C1565   1.504       .  S
O1192     Cr1208   2.100       .  S
O1193      C1194   1.280       .  A
C1194      O1195   1.247       .  A
C1194      C1442   1.505       .  S
O1195     Cr1209   1.969       .  S
O1196     Cr1209   1.924       .  S
C1197      C1219   1.399       .  S
O1198     Cr1207   1.924       .  S
O1198      C1206   1.247       .  A
O1199     Cr1207   1.986       .  S
O1199      C1200   1.249       .  A
C1200      O1201   1.277       .  A
C1200      C1524   1.510       .  S
O1201     Cr1208   2.053       .  S
O1202      C1203   1.293       .  A
C1203      O1204   1.253       .  A
C1203      C1499   1.494       .  S
O1204     Cr1209   1.947       .  S
O1205     Cr1209   1.952       .  S
Cr1207     O1210   1.791       .  S
Cr1208     O1210   1.730       .  S
O1211     Cr1229   1.925       .  S
O1212     Cr1229   1.984       .  S
O1212      C1213   1.248       .  A
C1213      O1214   1.276       .  A
C1213      C1445   1.505       .  S
O1215     Cr1230   2.078       .  S
O1215      C1216   1.290       .  A
C1216      O1217   1.253       .  A
C1216      C1568   1.491       .  S
O1217     Cr1231   1.948       .  S
O1218     Cr1231   1.960       .  S
O1218      C1219   1.256       .  A
O1220     Cr1229   1.961       .  S
O1221     Cr1229   1.947       .  S
O1221      C1222   1.252       .  A
C1222      O1223   1.290       .  A
C1222      C1376   1.491       .  S
O1224     Cr1230   2.048       .  S
O1224      C1225   1.277       .  A
C1225      O1226   1.248       .  A
C1225      C1411   1.508       .  S
O1226     Cr1231   1.986       .  S
O1227     Cr1231   1.923       .  S
O1227      C1228   1.249       .  A
Cr1230     O1232   1.728       .  S
Cr1231     O1232   1.795       .  S
O1233     Cr1251   1.949       .  S
O1233      C1241   1.254       .  A
O1234     Cr1251   1.947       .  S
O1234      C1235   1.252       .  A
C1235      O1236   1.294       .  A
C1235      C1433   1.497       .  S
O1236     Cr1252   2.092       .  S
O1237     Cr3364   2.052   1_455  S
O1237      C1238   1.277       .  A
C1238      O1239   1.250       .  A
C1238      C1354   1.512       .  S
O1239     Cr1253   1.990       .  S
O1240     Cr1253   1.918       .  S
O1240      C3353   1.245   1_455  A
C1241      O3352   1.245       .  A
C1241      C1272   1.388       .  S
O1242     Cr1251   1.920       .  S
O1242      C1250   1.248       .  A
O1243     Cr1251   1.971       .  S
O1243      C1244   1.247       .  A
C1244      O1245   1.282       .  A
C1244      C1546   1.508       .  S
O1245     Cr1252   2.068       .  S
O1246     Cr3364   2.109   1_455  S
O1246      C1247   1.297       .  A
C1247      O1248   1.249       .  A
C1247      C1489   1.505       .  S
O1248     Cr1253   1.937       .  S
O1249     Cr1253   1.960       .  S
O1249      C3362   1.257   1_455  A
C1250      O3361   1.256       .  A
C1250      C1316   1.383       .  S
Cr1251     O1254   1.795       .  S
Cr1252     O3349   2.056       .  S
Cr1252     O3358   2.110       .  S
Cr1252     O1254   1.727       .  S
Cr1253     O3366   1.790   1_455  S
O1254     Cr3365   1.791       .  S
O1255     Cr1273   1.926       .  S
O1255      C1263   1.249       .  A
O1256     Cr1273   1.972       .  S
O1256      C1257   1.247       .  A
C1257      O1258   1.283       .  A
C1257      C1389   1.514       .  S
O1258     Cr1274   2.075       .  S
O1259     Cr3386   2.111   1_455  S
O1259      C1260   1.298       .  A
C1260      O1261   1.250       .  A
C1260      C1326   1.505       .  S
O1261     Cr1275   1.935       .  S
O1262     Cr1275   1.947       .  S
O1262      C3375   1.252   1_455  A
C1263      O3374   1.252       .  A
C1263      C1294   1.380       .  S
O1264     Cr1273   1.948       .  S
O1264      C1272   1.254       .  A
O1265     Cr1273   1.945       .  S
O1265      C1266   1.252       .  A
C1266      O1267   1.297       .  A
C1266      C1436   1.509       .  S
O1267     Cr1274   2.109       .  S
O1268     Cr3386   2.080   1_455  S
O1268      C1269   1.283       .  A
C1269      O1270   1.246       .  A
C1269      C1357   1.518       .  S
O1270     Cr1275   1.972       .  S
O1271     Cr1275   1.919       .  S
O1271      C3384   1.247   1_455  A
C1272      O3383   1.247       .  A
Cr1273     O1276   1.791       .  S
Cr1274     O3371   2.111       .  S
Cr1274     O3380   2.080       .  S
Cr1274     O1276   1.732       .  S
Cr1275     O3388   1.789   1_455  S
O1276     Cr3387   1.789       .  S
O1277     Cr1295   1.925       .  S
O1277      C1285   1.249       .  A
O1278     Cr1295   1.964       .  S
O1278      C1279   1.244       .  A
C1279      O1280   1.276       .  A
C1279      C1577   1.498       .  S
O1280     Cr1296   2.055       .  S
O1281     Cr3408   2.085   1_455  S
O1281      C1282   1.292       .  A
C1282      O1283   1.252       .  A
C1282      C1464   1.497       .  S
O1283     Cr1297   1.949       .  S
O1284     Cr1297   1.962       .  S
O1284      C3397   1.258   1_455  A
C1285      O3396   1.258       .  A
C1285      C1307   1.401       .  S
O1286     Cr1295   1.943       .  S
O1286      C1294   1.250       .  A
O1287     Cr1295   1.950       .  S
O1287      C1288   1.253       .  A
C1288      O1289   1.293       .  A
C1288      C1392   1.496       .  S
O1289     Cr1296   2.086       .  S
O1290     Cr3408   2.046   1_455  S
O1290      C1291   1.277       .  A
C1291      O1292   1.249       .  A
C1291      C1323   1.504       .  S
O1292     Cr1297   1.984       .  S
O1293     Cr1297   1.928       .  S
O1293      C3406   1.248   1_455  A
C1294      O3405   1.248       .  A
Cr1295     O1298   1.793       .  S
Cr1296     O3393   2.085       .  S
Cr1296     O3402   2.045       .  S
Cr1296     O1298   1.731       .  S
Cr1297     O3410   1.798   1_455  S
O1298     Cr3409   1.797       .  S
O1299     Cr1317   1.960       .  S
O1299      C3419   1.257   1_455  A
O1300     Cr1317   1.940       .  S
O1300      C1301   1.250       .  A
C1301      O1302   1.294       .  A
C1301      C1467   1.501       .  S
O1302     Cr3430   2.098   1_455  S
O1303     Cr1318   2.036       .  S
O1303      C1304   1.274       .  A
C1304      O1305   1.247       .  A
C1304      C1574   1.497       .  S
O1305     Cr1319   1.981       .  S
O1306     Cr1319   1.927       .  S
O1306      C1307   1.250       .  A
C1307      O3411   1.257       .  A
O1308     Cr1317   1.922       .  S
O1308      C3428   1.248   1_455  A
O1309     Cr1317   1.991       .  S
O1309      C1310   1.251       .  A
C1310      O1311   1.271       .  A
C1310      C1486   1.494       .  S
O1311     Cr3430   2.024   1_455  S
O1312     Cr1318   2.090       .  S
O1312      C1313   1.294       .  A
C1313      O1314   1.251       .  A
C1313      C1543   1.495       .  S
O1314     Cr1319   1.942       .  S
O1315     Cr1319   1.953       .  S
O1315      C1316   1.254       .  A
C1316      O3420   1.248       .  A
Cr1317     O3432   1.789   1_455  S
Cr1318     O3414   2.095       .  S
Cr1318     O3423   2.024       .  S
Cr1318     O1320   1.731       .  S
Cr1319     O1320   1.791       .  S
O1320     Cr3429   1.789       .  S
O1321     Cr1339   1.958       .  S
O1321      C1329   1.257       .  A
O1322     Cr1339   1.938       .  S
O1322      C1323   1.251       .  A
C1323      O1324   1.296       .  A
O1324     Cr1340   2.106       .  S
O1325     Cr1340   2.044       .  S
O1325      C1326   1.276       .  A
C1326      O1327   1.249       .  A
O1327     Cr1341   1.989       .  S
O1328     Cr1341   1.917       .  S
O1328      C1329   1.248       .  A
C1329      C3507   1.392   1_455  S
O1330     Cr1339   1.920       .  S
O1330      C1338   1.249       .  A
O1331     Cr1339   1.987       .  S
O1331      C1332   1.249       .  A
C1332      O1333   1.276       .  A
O1333     Cr1340   2.041       .  S
O1334     Cr1340   2.107       .  S
O1334      C1335   1.296       .  A
C1335      O1336   1.249       .  A
O1336     Cr1341   1.933       .  S
O1337     Cr1341   1.961       .  S
O1337      C1338   1.256       .  A
C1338      C2011   1.396   1_554  S
Cr1339     O1342   1.786       .  S
Cr1340     O1342   1.725       .  S
Cr1341     O1342   1.787       .  S
O1343     Cr1361   1.924       .  S
O1343      C1351   1.247       .  A
O1344     Cr1361   1.975       .  S
O1344      C1345   1.248       .  A
C1345      O1346   1.284       .  A
O1346     Cr1362   2.077       .  S
O1347     Cr1362   2.114       .  S
O1347      C1348   1.299       .  A
C1348      O1349   1.251       .  A
O1349     Cr1363   1.938       .  S
O1350     Cr1363   1.949       .  S
O1350      C1351   1.253       .  A
O1352     Cr1361   1.950       .  S
O1352      C1360   1.254       .  A
O1353     Cr1361   1.947       .  S
O1353      C1354   1.253       .  A
C1354      O1355   1.298       .  A
O1355     Cr1362   2.111       .  S
O1356     Cr1362   2.079       .  S
O1356      C1357   1.283       .  A
C1357      O1358   1.247       .  A
O1358     Cr1363   1.974       .  S
O1359     Cr1363   1.918       .  S
O1359      C1360   1.246       .  A
C1360      C3551   1.389   1_455  S
Cr1361     O1364   1.791       .  S
Cr1362     O1364   1.730       .  S
Cr1363     O1364   1.790       .  S
O1365     Cr1383   1.924       .  S
O1365      C1373   1.249       .  A
O1366     Cr1383   1.982       .  S
O1366      C1367   1.248       .  A
C1367      O1368   1.276       .  A
O1368     Cr1384   2.045       .  S
O1369     Cr1384   2.077       .  S
O1369      C1370   1.290       .  A
C1370      O1371   1.252       .  A
O1371     Cr1385   1.944       .  S
O1372     Cr1385   1.963       .  S
O1372      C1373   1.257       .  A
C1373      C2042   1.400   1_554  S
O1374     Cr1383   1.958       .  S
O1374      C1382   1.256       .  A
O1375     Cr1383   1.947       .  S
O1375      C1376   1.252       .  A
C1376      O1377   1.290       .  A
O1377     Cr1384   2.080       .  S
O1378     Cr1384   2.044       .  S
O1378      C1379   1.276       .  A
C1379      O1380   1.248       .  A
O1380     Cr1385   1.985       .  S
O1381     Cr1385   1.922       .  S
O1381      C1382   1.248       .  A
Cr1383     O1386   1.792       .  S
Cr1384     O1386   1.728       .  S
Cr1385     O1386   1.794       .  S
O1387     Cr1405   1.920       .  S
O1387      C1395   1.247       .  A
O1388     Cr1405   1.973       .  S
O1388      C1389   1.247       .  A
C1389      O1390   1.281       .  A
O1390     Cr1406   2.071       .  S
O1391     Cr1406   2.091       .  S
O1391      C1392   1.294       .  A
C1392      O1393   1.252       .  A
O1393     Cr1407   1.944       .  S
O1394     Cr1407   1.954       .  S
O1394      C1395   1.254       .  A
C1395      C3441   1.393       .  S
O1396     Cr1405   1.953       .  S
O1396      C1404   1.255       .  A
O1397     Cr1405   1.949       .  S
O1397      C1398   1.254       .  A
C1398      O1399   1.294       .  A
O1399     Cr1406   2.100       .  S
O1400     Cr1406   2.081       .  S
O1400      C1401   1.284       .  A
C1401      O1402   1.246       .  A
O1402     Cr1407   1.968       .  S
O1403     Cr1407   1.922       .  S
O1403      C1404   1.248       .  A
C1404      C2086   1.394   1_554  S
Cr1405     O1408   1.787       .  S
Cr1406     O1408   1.731       .  S
Cr1407     O1408   1.795       .  S
O1409     Cr1427   1.964       .  S
O1409      C1417   1.258       .  A
O1410     Cr1427   1.934       .  S
O1410      C1411   1.249       .  A
C1411      O1412   1.299       .  A
O1412     Cr1428   2.116       .  S
O1413     Cr1428   2.056       .  S
O1413      C1414   1.278       .  A
C1414      O1415   1.248       .  A
O1415     Cr1429   1.974       .  S
O1416     Cr1429   1.921       .  S
O1416      C1417   1.249       .  A
O1418     Cr1427   1.920       .  S
O1418      C1426   1.247       .  A
O1419     Cr1427   1.987       .  S
O1419      C1420   1.249       .  A
C1420      O1421   1.276       .  A
O1421     Cr1428   2.044       .  S
O1422     Cr1428   2.113       .  S
O1422      C1423   1.298       .  A
C1423      O1424   1.252       .  A
O1424     Cr1429   1.943       .  S
O1425     Cr1429   1.951       .  S
O1425      C1426   1.254       .  A
C1426      C2064   1.391   1_554  S
Cr1427     O1430   1.789       .  S
Cr1428     O1430   1.729       .  S
Cr1429     O1430   1.783       .  S
O1431     Cr1449   1.948       .  S
O1431      C1439   1.254       .  A
O1432     Cr1449   1.945       .  S
O1432      C1433   1.252       .  A
C1433      O1434   1.295       .  A
O1434     Cr1450   2.094       .  S
O1435     Cr1450   2.051       .  S
O1435      C1436   1.277       .  A
C1436      O1437   1.249       .  A
O1437     Cr1451   1.987       .  S
O1438     Cr1451   1.920       .  S
O1438      C1439   1.247       .  A
C1439      C3472   1.389       .  S
O1440     Cr1449   1.923       .  S
O1440      C1448   1.249       .  A
O1441     Cr1449   1.966       .  S
O1441      C1442   1.246       .  A
C1442      O1443   1.280       .  A
O1443     Cr1450   2.065       .  S
O1444     Cr1450   2.106       .  S
O1444      C1445   1.296       .  A
C1445      O1446   1.250       .  A
O1446     Cr1451   1.940       .  S
O1447     Cr1451   1.958       .  S
O1447      C1448   1.257       .  A
Cr1449     O1452   1.791       .  S
Cr1450     O1452   1.727       .  S
Cr1451     O1452   1.788       .  S
O1453     Cr1471   1.926       .  S
O1453      C1461   1.249       .  A
O1454     Cr1471   1.987       .  S
O1454      C1455   1.248       .  A
C1455      O1456   1.275       .  A
O1456     Cr1472   2.045       .  S
O1457     Cr1472   2.083       .  S
O1457      C1458   1.292       .  A
C1458      O1459   1.251       .  A
O1459     Cr1473   1.950       .  S
O1460     Cr1473   1.947       .  S
O1460      C1461   1.253       .  A
O1462     Cr1471   1.952       .  S
O1462      C1470   1.254       .  A
O1463     Cr1471   1.947       .  S
O1463      C1464   1.252       .  A
C1464      O1465   1.293       .  A
O1465     Cr1472   2.086       .  S
O1466     Cr1472   2.043       .  S
O1466      C1467   1.275       .  A
C1467      O1468   1.247       .  A
O1468     Cr1473   1.982       .  S
O1469     Cr1473   1.931       .  S
O1469      C1470   1.251       .  A
C1470      C3692   1.388   1_455  S
Cr1471     O1474   1.797       .  S
Cr1472     O1474   1.729       .  S
Cr1473     O1474   1.799       .  S
O1475     Cr1493   1.918       .  S
O1475      C1483   1.249       .  A
O1476     Cr1493   1.972       .  S
O1476      C1477   1.247       .  A
C1477      O1478   1.277       .  A
O1478     Cr1494   2.056       .  S
O1479     Cr1494   2.082       .  S
O1479      C1480   1.292       .  A
C1480      O1481   1.251       .  A
O1481     Cr1495   1.940       .  S
O1482     Cr1495   1.963       .  S
O1482      C1483   1.257       .  A
C1483      C1866   1.396       .  S
O1484     Cr1493   1.952       .  S
O1484      C1492   1.253       .  A
O1485     Cr1493   1.940       .  S
O1485      C1486   1.253       .  A
C1486      O1487   1.291       .  A
O1487     Cr1494   2.087       .  S
O1488     Cr1494   2.052       .  S
O1488      C1489   1.278       .  A
C1489      O1490   1.247       .  A
O1490     Cr1495   1.979       .  S
O1491     Cr1495   1.928       .  S
O1491      C1492   1.249       .  A
C1492      C3661   1.398   1_455  S
Cr1493     O1496   1.783       .  S
Cr1494     O1496   1.732       .  S
Cr1495     O1496   1.794       .  S
O1497     Cr1515   1.951       .  S
O1497      C1505   1.254       .  A
O1498     Cr1515   1.947       .  S
O1498      C1499   1.253       .  A
C1499      O1500   1.293       .  A
O1500     Cr1516   2.086       .  S
O1501     Cr1516   2.047       .  S
O1501      C1502   1.275       .  A
C1502      O1503   1.250       .  A
O1503     Cr1517   1.987       .  S
O1504     Cr1517   1.921       .  S
O1504      C1505   1.246       .  A
O1506     Cr1515   1.924       .  S
O1506      C1514   1.250       .  A
O1507     Cr1515   1.968       .  S
O1507      C1508   1.247       .  A
C1508      O1509   1.279       .  A
O1509     Cr1516   2.061       .  S
O1510     Cr1516   2.102       .  S
O1510      C1511   1.295       .  A
C1511      O1512   1.250       .  A
O1512     Cr1517   1.937       .  S
O1513     Cr1517   1.965       .  S
O1513      C1514   1.258       .  A
C1514      C1901   1.400       .  S
Cr1515     O1518   1.788       .  S
Cr1516     O1518   1.730       .  S
Cr1517     O1518   1.788       .  S
O1519     Cr1537   1.919       .  S
O1519      C1527   1.248       .  A
O1520     Cr1537   1.967       .  S
O1520      C1521   1.245       .  A
C1521      O1522   1.282       .  A
O1522     Cr1538   2.072       .  S
O1523     Cr1538   2.109       .  S
O1523      C1524   1.297       .  A
C1524      O1525   1.251       .  A
O1525     Cr1539   1.945       .  S
O1526     Cr1539   1.956       .  S
O1526      C1527   1.257       .  A
O1528     Cr1537   1.948       .  S
O1528      C1536   1.253       .  A
O1529     Cr1537   1.945       .  S
O1529      C1530   1.253       .  A
C1530      O1531   1.295       .  A
O1531     Cr1538   2.093       .  S
O1532     Cr1538   2.056       .  S
O1532      C1533   1.278       .  A
C1533      O1534   1.248       .  A
O1534     Cr1539   1.985       .  S
O1535     Cr1539   1.922       .  S
O1535      C1536   1.247       .  A
C1536      C1954   1.390       .  S
Cr1537     O1540   1.791       .  S
Cr1538     O1540   1.726       .  S
Cr1539     O1540   1.790       .  S
O1541     Cr1559   1.957       .  S
O1541      C1549   1.256       .  A
O1542     Cr1559   1.951       .  S
O1542      C1543   1.253       .  A
C1543      O1544   1.292       .  A
O1544     Cr1560   2.084       .  S
O1545     Cr1560   2.068       .  S
O1545      C1546   1.280       .  A
C1546      O1547   1.246       .  A
O1547     Cr1561   1.968       .  S
O1548     Cr1561   1.922       .  S
O1548      C1549   1.247       .  A
C1549      C3604   1.396       .  S
O1550     Cr1559   1.921       .  S
O1550      C1558   1.246       .  A
O1551     Cr1559   1.971       .  S
O1551      C1552   1.247       .  A
C1552      O1553   1.281       .  A
O1553     Cr1560   2.069       .  S
O1554     Cr1560   2.085       .  S
O1554      C1555   1.292       .  A
C1555      O1556   1.254       .  A
O1556     Cr1561   1.950       .  S
O1557     Cr1561   1.955       .  S
O1557      C1558   1.255       .  A
C1558      C1932   1.394       .  S
Cr1559     O1562   1.794       .  S
Cr1560     O1562   1.730       .  S
Cr1561     O1562   1.795       .  S
O1563     Cr1581   1.921       .  S
O1563      C1571   1.247       .  A
O1564     Cr1581   1.985       .  S
O1564      C1565   1.249       .  A
C1565      O1566   1.275       .  A
O1566     Cr1582   2.044       .  S
O1567     Cr1582   2.082       .  S
O1567      C1568   1.291       .  A
C1568      O1569   1.253       .  A
O1569     Cr1583   1.946       .  S
O1570     Cr1583   1.952       .  S
O1570      C1571   1.254       .  A
O1572     Cr1581   1.958       .  S
O1572      C1580   1.256       .  A
O1573     Cr1581   1.933       .  S
O1573      C1574   1.249       .  A
C1574      O1575   1.294       .  A
O1575     Cr1582   2.099       .  S
O1576     Cr1582   2.055       .  S
O1576      C1577   1.278       .  A
C1577      O1578   1.247       .  A
O1578     Cr1583   1.968       .  S
O1579     Cr1583   1.928       .  S
O1579      C1580   1.250       .  A
C1580      C3582   1.388       .  S
Cr1581     O1584   1.787       .  S
Cr1582     O1584   1.732       .  S
Cr1583     O1584   1.791       .  S
O1585     Cr1603   1.921       .  S
O1585      C1593   1.247       .  A
O1586     Cr1603   1.974       .  S
O1586      C1587   1.248       .  A
C1587      O1588   1.284       .  A
C1587      C2061   1.516       .  S
O1589     Cr1604   2.073       .  S
O1589      C1590   1.281       .  A
C1590      O1591   1.247       .  A
C1590      C1948   1.512       .  S
O1591     Cr1605   1.972       .  S
O1592     Cr1605   1.918       .  S
C1593      C1646   1.375   1_556  S
O1594     Cr1603   1.950       .  S
O1594      C1602   1.254   1_556  A
O1595     Cr1603   1.943       .  S
O1595      C1596   1.252       .  A
C1596      O1597   1.297       .  A
C1596      C2080   1.507       .  S
O1598     Cr1604   2.118       .  S
O1598      C1599   1.300       .  A
C1599      O1600   1.250       .  A
C1599      C1929   1.510       .  S
O1600     Cr1605   1.937       .  S
O1601     Cr1605   1.947       .  S
C1602      C1624   1.389       .  S
Cr1604     O1606   1.729       .  S
Cr1605     O1606   1.789       .  S
O1607     Cr1625   1.963       .  S
O1608     Cr1625   1.937       .  S
O1608      C1609   1.250       .  A
C1609      O1610   1.295       .  A
C1609      C1895   1.503       .  S
O1610     Cr1626   2.103       .  S
O1611      C1612   1.279       .  A
C1612      O1613   1.246       .  A
C1612      C2036   1.502       .  S
O1613     Cr1627   1.967       .  S
O1614     Cr1627   1.924       .  S
O1614      C1615   1.250       .  A
C1615      C1659   1.401       .  S
O1616     Cr1625   1.923       .  S
O1617     Cr1625   1.989       .  S
O1617      C1618   1.251       .  A
C1618      O1619   1.274       .  A
C1618      C1926   1.505       .  S
O1619     Cr1626   2.042       .  S
O1620      C1621   1.294       .  A
C1621      O1622   1.252       .  A
C1621      C2083   1.494       .  S
O1622     Cr1627   1.943       .  S
O1623     Cr1627   1.949       .  S
O1623      C1624   1.254   1_556  A
Cr1625     O1628   1.790       .  S
Cr1626     O1628   1.731       .  S
O1629     Cr1647   1.926       .  S
O1629      C1637   1.249       .  A
O1630     Cr1647   1.968       .  S
O1630      C1631   1.246       .  A
C1631      O1632   1.279       .  A
C1631      C2005   1.505       .  S
O1633     Cr1648   2.105       .  S
O1633      C1634   1.296       .  A
C1634      O1635   1.250       .  A
C1634      C1860   1.504       .  S
O1635     Cr1649   1.936       .  S
O1636     Cr1649   1.957       .  S
C1637      C1668   1.386   1_556  S
O1638     Cr1647   1.942       .  S
O1638      C1646   1.251   1_556  A
O1639     Cr1647   1.947       .  S
O1639      C1640   1.252       .  A
C1640      O1641   1.294       .  A
C1640      C2058   1.497       .  S
O1642     Cr1648   2.051       .  S
O1642      C1643   1.276       .  A
C1643      O1644   1.248       .  A
C1643      C1951   1.510       .  S
O1644     Cr1649   1.987       .  S
O1645     Cr1649   1.919       .  S
Cr1648     O1650   1.730       .  S
Cr1649     O1650   1.790       .  S
O1651     Cr1669   1.925       .  S
O1651      C1659   1.249       .  A
O1652     Cr1669   1.982       .  S
O1652      C1653   1.248       .  A
C1653      O1654   1.274       .  A
C1653      C2039   1.502       .  S
O1655     Cr1670   2.074       .  S
O1655      C1656   1.289       .  A
C1656      O1657   1.252       .  A
C1656      C1898   1.489       .  S
O1657     Cr1671   1.947       .  S
O1658     Cr1671   1.960       .  S
O1660     Cr1669   1.955       .  S
O1660      C1668   1.255   1_556  A
O1661     Cr1669   1.945       .  S
O1661      C1662   1.251       .  A
C1662      O1663   1.291       .  A
C1662      C2008   1.491       .  S
O1664     Cr1670   2.040       .  S
O1664      C1665   1.276       .  A
C1665      O1666   1.249       .  A
C1665      C1863   1.502       .  S
O1666     Cr1671   1.987       .  S
O1667     Cr1671   1.927       .  S
Cr1670     O1672   1.730       .  S
Cr1671     O1672   1.796       .  S
O1673     Cr1691   1.923       .  S
O1673      C1681   1.248       .  A
O1674     Cr1691   1.965       .  S
O1674      C1675   1.245       .  A
C1675      O1676   1.284       .  A
C1675      C2049   1.515       .  S
O1676     Cr1692   2.082       .  S
O1677      C1678   1.295       .  A
C1678      O1679   1.253       .  A
C1678      C2030   1.506       .  S
O1679     Cr1693   1.946       .  S
O1680     Cr1693   1.952       .  S
C1681      C1734   1.394       .  S
O1682     Cr1691   1.951       .  S
O1682      C1690   1.254       .  A
O1683     Cr1691   1.944       .  S
O1683      C1684   1.253       .  A
C1684      O1685   1.295       .  A
C1684      C1986   1.497       .  S
O1685     Cr1692   2.093       .  S
O1686      C1687   1.281       .  A
C1687      O1688   1.248       .  A
C1687      C1873   1.514       .  S
O1688     Cr1693   1.974       .  S
O1689     Cr1693   1.920       .  S
C1690      C1703   1.391       .  S
Cr1691     O1694   1.794       .  S
Cr1692     O1694   1.730       .  S
O1695     Cr1713   1.953       .  S
O1695      C1703   1.254       .  A
O1696     Cr1713   1.941       .  S
O1696      C1697   1.252       .  A
C1697      O1698   1.296       .  A
C1697      C1983   1.505       .  S
O1698     Cr1714   2.105       .  S
O1699      C1700   1.277       .  A
C1700      O1701   1.249       .  A
C1700      C1876   1.506       .  S
O1701     Cr1715   1.987       .  S
O1702     Cr1715   1.920       .  S
O1704     Cr1713   1.919       .  S
O1704      C1712   1.248       .  A
O1705     Cr1713   1.976       .  S
O1705      C1706   1.248       .  A
C1706      O1707   1.280       .  A
C1706      C1942   1.509       .  S
O1707     Cr1714   2.063       .  S
O1708      C1709   1.297       .  A
C1709      O1710   1.249       .  A
C1709      C1907   1.503       .  S
O1710     Cr1715   1.929       .  S
O1711     Cr1715   1.966       .  S
C1712      C1756   1.398       .  S
Cr1713     O1716   1.784       .  S
Cr1714     O1716   1.729       .  S
O1717     Cr1735   1.967       .  S
O1717      C1725   1.258       .  A
O1718     Cr1735   1.941       .  S
O1718      C1719   1.251       .  A
C1719      O1720   1.295       .  A
C1719      C2093   1.505       .  S
O1720     Cr1736   2.104       .  S
O1721      C1722   1.281       .  A
C1722      O1723   1.246       .  A
C1722      C1970   1.507       .  S
O1723     Cr1737   1.969       .  S
O1724     Cr1737   1.923       .  S
C1725      C1747   1.402       .  S
O1726     Cr1735   1.922       .  S
O1726      C1734   1.246       .  A
O1727     Cr1735   1.988       .  S
O1727      C1728   1.250       .  A
C1728      O1729   1.276       .  A
C1728      C2052   1.509       .  S
O1729     Cr1736   2.049       .  S
O1730      C1731   1.292       .  A
C1731      O1732   1.253       .  A
C1731      C2027   1.493       .  S
O1732     Cr1737   1.947       .  S
O1733     Cr1737   1.952       .  S
Cr1735     O1738   1.789       .  S
Cr1736     O1738   1.730       .  S
O1739     Cr1757   1.923       .  S
O1740     Cr1757   1.985       .  S
O1740      C1741   1.248       .  A
C1741      O1742   1.277       .  A
C1741      C1973   1.508       .  S
O1743     Cr1758   2.077       .  S
O1743      C1744   1.290       .  A
C1744      O1745   1.252       .  A
C1744      C2096   1.489       .  S
O1745     Cr1759   1.946       .  S
O1746     Cr1759   1.964       .  S
O1746      C1747   1.257       .  A
O1748     Cr1757   1.961       .  S
O1749     Cr1757   1.947       .  S
O1749      C1750   1.252       .  A
C1750      O1751   1.290       .  A
C1750      C1904   1.492       .  S
O1752     Cr1758   2.047       .  S
O1752      C1753   1.277       .  A
C1753      O1754   1.249       .  A
C1753      C1939   1.508       .  S
O1754     Cr1759   1.988       .  S
O1755     Cr1759   1.922       .  S
O1755      C1756   1.249       .  A
Cr1758     O1760   1.728       .  S
Cr1759     O1760   1.793       .  S
O1761     Cr1779   1.949       .  S
O1761      C1769   1.254       .  A
O1762     Cr1779   1.946       .  S
O1762      C1763   1.252       .  A
C1763      O1764   1.294       .  A
C1763      C1961   1.497       .  S
O1764     Cr1780   2.092       .  S
O1765     Cr3892   2.050   1_455  S
O1765      C1766   1.276       .  A
C1766      O1767   1.249       .  A
C1766      C1882   1.510       .  S
O1767     Cr1781   1.988       .  S
O1768     Cr1781   1.919       .  S
O1768      C3881   1.246   1_455  A
C1769      O3880   1.246       .  A
C1769      C1800   1.388       .  S
O1770     Cr1779   1.923       .  S
O1770      C1778   1.248       .  A
O1771     Cr1779   1.968       .  S
O1771      C1772   1.247       .  A
C1772      O1773   1.279       .  A
C1772      C2074   1.501       .  S
O1773     Cr1780   2.060       .  S
O1774     Cr3892   2.109   1_455  S
O1774      C1775   1.297       .  A
C1775      O1776   1.249       .  A
C1775      C2017   1.506       .  S
O1776     Cr1781   1.938       .  S
O1777     Cr1781   1.958       .  S
O1777      C3890   1.256   1_455  A
C1778      O3889   1.256       .  A
C1778      C1844   1.384       .  S
Cr1779     O1782   1.793       .  S
Cr1780     O3877   2.049       .  S
Cr1780     O3886   2.109       .  S
Cr1780     O1782   1.728       .  S
Cr1781     O3894   1.790   1_455  S
O1782     Cr3893   1.790       .  S
O1783     Cr1801   1.928       .  S
O1783      C1791   1.249       .  A
O1784     Cr1801   1.970       .  S
O1784      C1785   1.247       .  A
C1785      O1786   1.281       .  A
C1785      C1917   1.508       .  S
O1786     Cr1802   2.069       .  S
O1787     Cr3914   2.112   1_455  S
O1787      C1788   1.298       .  A
C1788      O1789   1.250       .  A
C1788      C1854   1.506       .  S
O1789     Cr1803   1.935       .  S
O1790     Cr1803   1.946       .  S
O1790      C3903   1.251   1_455  A
C1791      O3902   1.252       .  A
C1791      C1822   1.380       .  S
O1792     Cr1801   1.947       .  S
O1792      C1800   1.254       .  A
O1793     Cr1801   1.946       .  S
O1793      C1794   1.253       .  A
C1794      O1795   1.298       .  A
C1794      C1964   1.511       .  S
O1795     Cr1802   2.110       .  S
O1796     Cr3914   2.079   1_455  S
O1796      C1797   1.283       .  A
C1797      O1798   1.246       .  A
C1797      C1885   1.516       .  S
O1798     Cr1803   1.971       .  S
O1799     Cr1803   1.919       .  S
O1799      C3912   1.247   1_455  A
C1800      O3911   1.247       .  A
Cr1801     O1804   1.789       .  S
Cr1802     O3899   2.112       .  S
Cr1802     O3908   2.075       .  S
Cr1802     O1804   1.732       .  S
Cr1803     O3916   1.789   1_455  S
O1804     Cr3915   1.789       .  S
O1805     Cr1823   1.923       .  S
O1805      C1813   1.249       .  A
O1806     Cr1823   1.965       .  S
O1806      C1807   1.245       .  A
C1807      O1808   1.276       .  A
C1807      C2105   1.498       .  S
O1808     Cr1824   2.054       .  S
O1809     Cr3936   2.085   1_455  S
O1809      C1810   1.292       .  A
C1810      O1811   1.252       .  A
C1810      C1992   1.496       .  S
O1811     Cr1825   1.948       .  S
O1812     Cr1825   1.962       .  S
O1812      C3925   1.258   1_455  A
C1813      O3924   1.258       .  A
C1813      C1835   1.399       .  S
O1814     Cr1823   1.943       .  S
O1814      C1822   1.251       .  A
O1815     Cr1823   1.949       .  S
O1815      C1816   1.252       .  A
C1816      O1817   1.294       .  A
C1816      C1920   1.496       .  S
O1817     Cr1824   2.088       .  S
O1818     Cr3936   2.045   1_455  S
O1818      C1819   1.276       .  A
C1819      O1820   1.249       .  A
C1819      C1851   1.504       .  S
O1820     Cr1825   1.985       .  S
O1821     Cr1825   1.927       .  S
O1821      C3934   1.248   1_455  A
C1822      O3933   1.248       .  A
Cr1823     O1826   1.793       .  S
Cr1824     O3921   2.087       .  S
Cr1824     O3930   2.046       .  S
Cr1824     O1826   1.730       .  S
Cr1825     O3938   1.798   1_455  S
O1826     Cr3937   1.798       .  S
O1827     Cr1845   1.961       .  S
O1827      C3947   1.257   1_455  A
O1828     Cr1845   1.940       .  S
O1828      C1829   1.250       .  A
C1829      O1830   1.294       .  A
C1829      C1995   1.501       .  S
O1830     Cr3958   2.098   1_455  S
O1831     Cr1846   2.036       .  S
O1831      C1832   1.273       .  A
C1832      O1833   1.248       .  A
C1832      C2102   1.497       .  S
O1833     Cr1847   1.982       .  S
O1834     Cr1847   1.925       .  S
O1834      C1835   1.250       .  A
C1835      O3939   1.257       .  A
O1836     Cr1845   1.923       .  S
O1836      C3956   1.249   1_455  A
O1837     Cr1845   1.991       .  S
O1837      C1838   1.251       .  A
C1838      O1839   1.271       .  A
C1838      C2014   1.494       .  S
O1839     Cr3958   2.025   1_455  S
O1840     Cr1846   2.094       .  S
O1840      C1841   1.295       .  A
C1841      O1842   1.251       .  A
C1841      C2071   1.498       .  S
O1842     Cr1847   1.942       .  S
O1843     Cr1847   1.954       .  S
O1843      C1844   1.255       .  A
C1844      O3948   1.249       .  A
Cr1845     O3960   1.789   1_455  S
Cr1846     O3942   2.099       .  S
Cr1846     O3951   2.026       .  S
Cr1846     O1848   1.730       .  S
Cr1847     O1848   1.791       .  S
O1848     Cr3957   1.790       .  S
O1849     Cr1867   1.959       .  S
O1849      C1857   1.257       .  A
O1850     Cr1867   1.937       .  S
O1850      C1851   1.250       .  A
C1851      O1852   1.297       .  A
O1852     Cr1868   2.106       .  S
O1853     Cr1868   2.044       .  S
O1853      C1854   1.276       .  A
C1854      O1855   1.250       .  A
O1855     Cr1869   1.989       .  S
O1856     Cr1869   1.917       .  S
O1856      C1857   1.247       .  A
C1857      C4035   1.393   1_455  S
O1858     Cr1867   1.919       .  S
O1858      C1866   1.249       .  A
O1859     Cr1867   1.987       .  S
O1859      C1860   1.249       .  A
C1860      O1861   1.276       .  A
O1861     Cr1868   2.043       .  S
O1862     Cr1868   2.106       .  S
O1862      C1863   1.296       .  A
C1863      O1864   1.250       .  A
O1864     Cr1869   1.934       .  S
O1865     Cr1869   1.963       .  S
O1865      C1866   1.257       .  A
Cr1867     O1870   1.786       .  S
Cr1868     O1870   1.725       .  S
Cr1869     O1870   1.787       .  S
O1871     Cr1889   1.925       .  S
O1871      C1879   1.248       .  A
O1872     Cr1889   1.973       .  S
O1872      C1873   1.248       .  A
C1873      O1874   1.283       .  A
O1874     Cr1890   2.075       .  S
O1875     Cr1890   2.112       .  S
O1875      C1876   1.298       .  A
C1876      O1877   1.250       .  A
O1877     Cr1891   1.935       .  S
O1878     Cr1891   1.949       .  S
O1878      C1879   1.253       .  A
O1880     Cr1889   1.949       .  S
O1880      C1888   1.254       .  A
O1881     Cr1889   1.945       .  S
O1881      C1882   1.252       .  A
C1882      O1883   1.297       .  A
O1883     Cr1890   2.109       .  S
O1884     Cr1890   2.078       .  S
O1884      C1885   1.283       .  A
C1885      O1886   1.247       .  A
O1886     Cr1891   1.972       .  S
O1887     Cr1891   1.918       .  S
O1887      C1888   1.246       .  A
C1888      C4079   1.389   1_455  S
Cr1889     O1892   1.790       .  S
Cr1890     O1892   1.731       .  S
Cr1891     O1892   1.789       .  S
O1893     Cr1911   1.924       .  S
O1893      C1901   1.249       .  A
O1894     Cr1911   1.984       .  S
O1894      C1895   1.248       .  A
C1895      O1896   1.276       .  A
O1896     Cr1912   2.043       .  S
O1897     Cr1912   2.076       .  S
O1897      C1898   1.289       .  A
C1898      O1899   1.253       .  A
O1899     Cr1913   1.946       .  S
O1900     Cr1913   1.963       .  S
O1900      C1901   1.257       .  A
O1902     Cr1911   1.961       .  S
O1902      C1910   1.256       .  A
O1903     Cr1911   1.947       .  S
O1903      C1904   1.252       .  A
C1904      O1905   1.290       .  A
O1905     Cr1912   2.080       .  S
O1906     Cr1912   2.041       .  S
O1906      C1907   1.276       .  A
C1907      O1908   1.248       .  A
O1908     Cr1913   1.986       .  S
O1909     Cr1913   1.922       .  S
O1909      C1910   1.249       .  A
Cr1911     O1914   1.793       .  S
Cr1912     O1914   1.729       .  S
Cr1913     O1914   1.794       .  S
O1915     Cr1933   1.919       .  S
O1915      C1923   1.248       .  A
O1916     Cr1933   1.976       .  S
O1916      C1917   1.248       .  A
C1917      O1918   1.278       .  A
O1918     Cr1934   2.060       .  S
O1919     Cr1934   2.093       .  S
O1919      C1920   1.295       .  A
C1920      O1921   1.251       .  A
O1921     Cr1935   1.940       .  S
O1922     Cr1935   1.960       .  S
O1922      C1923   1.256       .  A
C1923      C3969   1.395       .  S
O1924     Cr1933   1.952       .  S
O1924      C1932   1.254       .  A
O1925     Cr1933   1.950       .  S
O1925      C1926   1.254       .  A
C1926      O1927   1.294       .  A
O1927     Cr1934   2.096       .  S
O1928     Cr1934   2.058       .  S
O1928      C1929   1.280       .  A
C1929      O1930   1.247       .  A
O1930     Cr1935   1.980       .  S
O1931     Cr1935   1.924       .  S
O1931      C1932   1.248       .  A
Cr1933     O1936   1.785       .  S
Cr1934     O1936   1.729       .  S
Cr1935     O1936   1.797       .  S
O1937     Cr1955   1.958       .  S
O1937      C1945   1.255       .  A
O1938     Cr1955   1.937       .  S
O1938      C1939   1.251       .  A
C1939      O1940   1.299       .  A
O1940     Cr1956   2.113       .  S
O1941     Cr1956   2.067       .  S
O1941      C1942   1.280       .  A
C1942      O1943   1.248       .  A
O1943     Cr1957   1.972       .  S
O1944     Cr1957   1.922       .  S
O1944      C1945   1.247       .  A
O1946     Cr1955   1.917       .  S
O1946      C1954   1.246       .  A
O1947     Cr1955   1.975       .  S
O1947      C1948   1.248       .  A
C1948      O1949   1.281       .  A
O1949     Cr1956   2.069       .  S
O1950     Cr1956   2.114       .  S
O1950      C1951   1.298       .  A
C1951      O1952   1.252       .  A
O1952     Cr1957   1.941       .  S
O1953     Cr1957   1.953       .  S
O1953      C1954   1.255       .  A
Cr1955     O1958   1.787       .  S
Cr1956     O1958   1.730       .  S
Cr1957     O1958   1.786       .  S
O1959     Cr1977   1.949       .  S
O1959      C1967   1.254       .  A
O1960     Cr1977   1.944       .  S
O1960      C1961   1.252       .  A
C1961      O1962   1.295       .  A
O1962     Cr1978   2.093       .  S
O1963     Cr1978   2.053       .  S
O1963      C1964   1.277       .  A
C1964      O1965   1.249       .  A
O1965     Cr1979   1.986       .  S
O1966     Cr1979   1.921       .  S
O1966      C1967   1.247       .  A
C1967      C4000   1.390       .  S
O1968     Cr1977   1.920       .  S
O1968      C1976   1.248       .  A
O1969     Cr1977   1.968       .  S
O1969      C1970   1.246       .  A
C1970      O1971   1.281       .  A
O1971     Cr1978   2.067       .  S
O1972     Cr1978   2.108       .  S
O1972      C1973   1.297       .  A
C1973      O1974   1.251       .  A
O1974     Cr1979   1.942       .  S
O1975     Cr1979   1.958       .  S
O1975      C1976   1.257       .  A
Cr1977     O1980   1.791       .  S
Cr1978     O1980   1.726       .  S
Cr1979     O1980   1.790       .  S
O1981     Cr1999   1.926       .  S
O1981      C1989   1.249       .  A
O1982     Cr1999   1.987       .  S
O1982      C1983   1.248       .  A
C1983      O1984   1.274       .  A
O1984     Cr2000   2.044       .  S
O1985     Cr2000   2.084       .  S
O1985      C1986   1.292       .  A
C1986      O1987   1.252       .  A
O1987     Cr2001   1.951       .  S
O1988     Cr2001   1.946       .  S
O1988      C1989   1.253       .  A
O1990     Cr1999   1.952       .  S
O1990      C1998   1.254       .  A
O1991     Cr1999   1.947       .  S
O1991      C1992   1.252       .  A
C1992      O1993   1.293       .  A
O1993     Cr2000   2.086       .  S
O1994     Cr2000   2.042       .  S
O1994      C1995   1.275       .  A
C1995      O1996   1.248       .  A
O1996     Cr2001   1.983       .  S
O1997     Cr2001   1.931       .  S
O1997      C1998   1.251       .  A
C1998      C4220   1.388   1_455  S
Cr1999     O2002   1.798       .  S
Cr2000     O2002   1.730       .  S
Cr2001     O2002   1.799       .  S
O2003     Cr2021   1.917       .  S
O2003      C2011   1.248       .  A
O2004     Cr2021   1.974       .  S
O2004      C2005   1.247       .  A
C2005      O2006   1.278       .  A
O2006     Cr2022   2.058       .  S
O2007     Cr2022   2.084       .  S
O2007      C2008   1.292       .  A
C2008      O2009   1.251       .  A
O2009     Cr2023   1.942       .  S
O2010     Cr2023   1.962       .  S
O2010      C2011   1.257       .  A
O2012     Cr2021   1.954       .  S
O2012      C2020   1.253       .  A
O2013     Cr2021   1.941       .  S
O2013      C2014   1.253       .  A
C2014      O2015   1.291       .  A
O2015     Cr2022   2.087       .  S
O2016     Cr2022   2.054       .  S
O2016      C2017   1.279       .  A
C2017      O2018   1.247       .  A
O2018     Cr2023   1.980       .  S
O2019     Cr2023   1.928       .  S
O2019      C2020   1.249       .  A
C2020      C4189   1.399   1_455  S
Cr2021     O2024   1.784       .  S
Cr2022     O2024   1.731       .  S
Cr2023     O2024   1.794       .  S
O2025     Cr2043   1.953       .  S
O2025      C2033   1.254       .  A
O2026     Cr2043   1.946       .  S
O2026      C2027   1.253       .  A
C2027      O2028   1.293       .  A
O2028     Cr2044   2.086       .  S
O2029     Cr2044   2.045       .  S
O2029      C2030   1.275       .  A
C2030      O2031   1.250       .  A
O2031     Cr2045   1.988       .  S
O2032     Cr2045   1.920       .  S
O2032      C2033   1.247       .  A
O2034     Cr2043   1.923       .  S
O2034      C2042   1.249       .  A
O2035     Cr2043   1.968       .  S
O2035      C2036   1.247       .  A
C2036      O2037   1.279       .  A
O2037     Cr2044   2.059       .  S
O2038     Cr2044   2.100       .  S
O2038      C2039   1.295       .  A
C2039      O2040   1.250       .  A
O2040     Cr2045   1.939       .  S
O2041     Cr2045   1.965       .  S
O2041      C2042   1.258       .  A
Cr2043     O2046   1.790       .  S
Cr2044     O2046   1.730       .  S
Cr2045     O2046   1.788       .  S
O2047     Cr2065   1.921       .  S
O2047      C2055   1.247       .  A
O2048     Cr2065   1.966       .  S
O2048      C2049   1.245       .  A
C2049      O2050   1.284       .  A
O2050     Cr2066   2.081       .  S
O2051     Cr2066   2.104       .  S
O2051      C2052   1.295       .  A
C2052      O2053   1.253       .  A
O2053     Cr2067   1.950       .  S
O2054     Cr2067   1.951       .  S
O2054      C2055   1.254       .  A
O2056     Cr2065   1.950       .  S
O2056      C2064   1.254       .  A
O2057     Cr2065   1.945       .  S
O2057      C2058   1.253       .  A
C2058      O2059   1.295       .  A
O2059     Cr2066   2.094       .  S
O2060     Cr2066   2.075       .  S
O2060      C2061   1.282       .  A
C2061      O2062   1.247       .  A
O2062     Cr2067   1.973       .  S
O2063     Cr2067   1.920       .  S
O2063      C2064   1.246       .  A
Cr2065     O2068   1.795       .  S
Cr2066     O2068   1.729       .  S
Cr2067     O2068   1.788       .  S
O2069     Cr2087   1.965       .  S
O2069      C2077   1.259       .  A
O2070     Cr2087   1.947       .  S
O2070      C2071   1.251       .  A
C2071      O2072   1.293       .  A
O2072     Cr2088   2.090       .  S
O2073     Cr2088   2.056       .  S
O2073      C2074   1.277       .  A
C2074      O2075   1.247       .  A
O2075     Cr2089   1.970       .  S
O2076     Cr2089   1.919       .  S
O2076      C2077   1.248       .  A
C2077      C4132   1.397       .  S
O2078     Cr2087   1.923       .  S
O2078      C2086   1.246       .  A
O2079     Cr2087   1.984       .  S
O2079      C2080   1.249       .  A
C2080      O2081   1.277       .  A
O2081     Cr2088   2.049       .  S
O2082     Cr2088   2.084       .  S
O2082      C2083   1.292       .  A
C2083      O2084   1.254       .  A
O2084     Cr2089   1.950       .  S
O2085     Cr2089   1.952       .  S
O2085      C2086   1.254       .  A
Cr2087     O2090   1.796       .  S
Cr2088     O2090   1.728       .  S
Cr2089     O2090   1.791       .  S
O2091     Cr2109   1.922       .  S
O2091      C2099   1.247       .  A
O2092     Cr2109   1.985       .  S
O2092      C2093   1.248       .  A
C2093      O2094   1.275       .  A
O2094     Cr2110   2.045       .  S
O2095     Cr2110   2.080       .  S
O2095      C2096   1.291       .  A
C2096      O2097   1.253       .  A
O2097     Cr2111   1.944       .  S
O2098     Cr2111   1.955       .  S
O2098      C2099   1.255       .  A
O2100     Cr2109   1.956       .  S
O2100      C2108   1.255       .  A
O2101     Cr2109   1.934       .  S
O2101      C2102   1.250       .  A
C2102      O2103   1.294       .  A
O2103     Cr2110   2.097       .  S
O2104     Cr2110   2.055       .  S
O2104      C2105   1.279       .  A
C2105      O2106   1.247       .  A
O2106     Cr2111   1.969       .  S
O2107     Cr2111   1.926       .  S
O2107      C2108   1.249       .  A
C2108      C4110   1.387       .  S
Cr2109     O2112   1.788       .  S
Cr2110     O2112   1.733       .  S
Cr2111     O2112   1.791       .  S
O2113     Cr2131   1.920       .  S
O2113      C2121   1.246       .  A
O2114     Cr2131   1.974       .  S
O2114      C2115   1.247       .  A
C2115      O2116   1.284       .  A
C2115      C2589   1.515       .  S
O2116     Cr2660   2.076       .  S
O2117     Cr2132   2.071       .  S
O2117      C2118   1.281       .  A
C2118      O2119   1.246       .  A
C2118      C2476   1.510       .  S
O2119     Cr2133   1.970       .  S
O2120     Cr2133   1.919       .  S
O2120      C2649   1.247       .  A
C2121      O2648   1.252       .  A
C2121      C2174   1.374       .  S
O2122     Cr2131   1.949       .  S
O2122      C2130   1.254       .  A
O2123     Cr2131   1.943       .  S
O2123      C2124   1.252       .  A
C2124      O2125   1.297       .  A
C2124      C2608   1.509       .  S
O2125     Cr2660   2.110       .  S
O2126     Cr2132   2.118       .  S
O2126      C2127   1.300       .  A
C2127      O2128   1.249       .  A
C2127      C2457   1.509       .  S
O2128     Cr2133   1.935       .  S
O2129     Cr2133   1.947       .  S
O2129      C2658   1.253   1_554  A
C2130      O2657   1.247       .  A
C2130      C2152   1.389       .  S
Cr2131     O2662   1.790       .  S
Cr2132     O2644   2.117   1_554  S
Cr2132     O2653   2.070   1_554  S
Cr2132     O2134   1.729       .  S
Cr2133     O2134   1.788       .  S
O2134     Cr2659   1.789   1_554  S
O2135     Cr2153   1.963       .  S
O2135      C2671   1.258   1_554  A
O2136     Cr2153   1.937       .  S
O2136      C2137   1.250       .  A
C2137      O2138   1.295       .  A
C2137      C2423   1.503       .  S
O2138     Cr2154   2.103   1_554  S
O2139     Cr2682   2.060       .  S
O2139      C2140   1.279       .  A
C2140      O2141   1.246       .  A
C2140      C2564   1.500       .  S
O2141     Cr2155   1.966       .  S
O2142     Cr2155   1.923       .  S
O2142      C2143   1.250       .  A
C2143      O2663   1.259       .  A
C2143      C2187   1.401       .  S
O2144     Cr2153   1.922       .  S
O2144      C2680   1.247       .  A
O2145     Cr2153   1.990       .  S
O2145      C2146   1.251       .  A
C2146      O2147   1.274       .  A
C2146      C2454   1.504       .  S
O2147     Cr2154   2.042   1_554  S
O2148     Cr2682   2.089       .  S
O2148      C2149   1.293       .  A
C2149      O2150   1.252       .  A
C2149      C2611   1.493       .  S
O2150     Cr2155   1.942       .  S
O2151     Cr2155   1.949       .  S
O2151      C2152   1.254       .  A
C2152      O2672   1.246       .  A
Cr2153     O2156   1.790       .  S
Cr2154     O2667   2.061       .  S
Cr2154     O2676   2.092       .  S
Cr2154     O2156   1.730   1_556  S
Cr2155     O2684   1.788       .  S
O2156     Cr2683   1.790   1_554  S
O2157     Cr2175   1.925       .  S
O2157      C2165   1.249       .  A
O2158     Cr2175   1.969       .  S
O2158      C2159   1.247       .  A
C2159      O2160   1.279       .  A
C2159      C2533   1.504       .  S
O2160     Cr2704   2.062       .  S
O2161     Cr2176   2.105   1_554  S
O2161      C2162   1.296       .  A
C2162      O2163   1.250       .  A
C2162      C2388   1.503       .  S
O2163     Cr2177   1.936       .  S
O2164     Cr2177   1.957       .  S
O2164      C2693   1.255   1_554  A
C2165      O2692   1.255       .  A
C2165      C2196   1.385       .  S
O2166     Cr2175   1.942       .  S
O2166      C2174   1.251       .  A
O2167     Cr2175   1.948       .  S
O2167      C2168   1.252       .  A
C2168      O2169   1.295       .  A
C2168      C2586   1.499       .  S
O2169     Cr2704   2.092       .  S
O2170     Cr2176   2.052   1_554  S
O2170      C2171   1.277       .  A
C2171      O2172   1.249       .  A
C2171      C2479   1.511       .  S
O2172     Cr2177   1.988       .  S
O2173     Cr2177   1.919       .  S
O2173      C2702   1.246       .  A
C2174      O2701   1.247       .  A
Cr2175     O2706   1.795       .  S
Cr2176     O2688   2.061       .  S
Cr2176     O2697   2.089       .  S
Cr2176     O2178   1.730       .  S
Cr2177     O2178   1.790   1_554  S
O2178     Cr2703   1.793       .  S
O2179     Cr2197   1.925       .  S
O2179      C2187   1.249       .  A
O2180     Cr2197   1.982       .  S
O2180      C2181   1.247       .  A
C2181      O2182   1.275       .  A
C2181      C2567   1.502       .  S
O2182     Cr2726   2.043       .  S
O2183     Cr2198   2.075   1_554  S
O2183      C2184   1.289       .  A
C2184      O2185   1.252       .  A
C2184      C2426   1.489       .  S
O2185     Cr2199   1.946       .  S
O2186     Cr2199   1.960       .  S
O2186      C2715   1.257   1_554  A
C2187      O2714   1.256       .  A
O2188     Cr2197   1.954       .  S
O2188      C2196   1.255       .  A
O2189     Cr2197   1.944       .  S
O2189      C2190   1.251       .  A
C2190      O2191   1.291       .  A
C2190      C2536   1.490       .  S
O2191     Cr2726   2.079       .  S
O2192     Cr2198   2.041   1_554  S
O2192      C2193   1.276       .  A
C2193      O2194   1.250       .  A
C2193      C2391   1.503       .  S
O2194     Cr2199   1.988       .  S
O2195     Cr2199   1.926       .  S
O2195      C2724   1.249       .  A
C2196      O2723   1.249       .  A
Cr2197     O2728   1.794       .  S
Cr2198     O2710   2.041       .  S
Cr2198     O2719   2.079       .  S
Cr2198     O2200   1.730   1_556  S
Cr2199     O2200   1.796       .  S
O2200     Cr2725   1.794   1_554  S
O2201     Cr2219   1.924       .  S
O2201      C2209   1.248       .  A
O2202     Cr2219   1.965       .  S
O2202      C2203   1.245       .  A
C2203      O2204   1.284       .  A
C2203      C2577   1.515       .  S
O2204     Cr2220   2.082       .  S
O2205     Cr3276   2.102   1_545  S
O2205      C2206   1.295       .  A
C2206      O2207   1.253       .  A
C2206      C2558   1.506       .  S
O2207     Cr2221   1.946       .  S
O2208     Cr2221   1.953       .  S
O2208      C3265   1.254   1_545  A
C2209      O3264   1.255       .  A
C2209      C2262   1.394       .  S
O2210     Cr2219   1.950       .  S
O2210      C2218   1.254       .  A
O2211     Cr2219   1.945       .  S
O2211      C2212   1.253       .  A
C2212      O2213   1.295       .  A
C2212      C2514   1.498       .  S
O2213     Cr2220   2.094       .  S
O2214     Cr3276   2.073   1_545  S
O2214      C2215   1.282       .  A
C2215      O2216   1.247       .  A
C2215      C2401   1.515       .  S
O2216     Cr2221   1.973       .  S
O2217     Cr2221   1.921       .  S
O2217      C3274   1.247   1_545  A
C2218      O3273   1.247       .  A
C2218      C2231   1.391       .  S
Cr2219     O2222   1.795       .  S
Cr2220     O3261   2.102       .  S
Cr2220     O3270   2.075       .  S
Cr2220     O2222   1.730       .  S
Cr2221     O3278   1.788   1_545  S
O2222     Cr3277   1.788       .  S
O2223     Cr2241   1.953       .  S
O2223      C2231   1.254       .  A
O2224     Cr2241   1.941       .  S
O2224      C2225   1.252       .  A
C2225      O2226   1.296       .  A
C2225      C2511   1.505       .  S
O2226     Cr2242   2.105       .  S
O2227     Cr3298   2.047   1_545  S
O2227      C2228   1.277       .  A
C2228      O2229   1.249       .  A
C2228      C2404   1.506       .  S
O2229     Cr2243   1.986       .  S
O2230     Cr2243   1.921       .  S
O2230      C3287   1.247   1_545  A
C2231      O3286   1.246       .  A
O2232     Cr2241   1.919       .  S
O2232      C2240   1.249       .  A
O2233     Cr2241   1.975       .  S
O2233      C2234   1.248       .  A
C2234      O2235   1.280       .  A
C2234      C2470   1.508       .  S
O2235     Cr2242   2.064       .  S
O2236     Cr3298   2.111   1_545  S
O2236      C2237   1.298       .  A
C2237      O2238   1.249       .  A
C2237      C2435   1.504       .  S
O2238     Cr2243   1.931       .  S
O2239     Cr2243   1.967       .  S
O2239      C3296   1.258   1_545  A
C2240      O3295   1.258       .  A
C2240      C2284   1.399       .  S
Cr2241     O2244   1.784       .  S
Cr2242     O3283   2.053       .  S
Cr2242     O3292   2.112       .  S
Cr2242     O2244   1.729       .  S
Cr2243     O3300   1.789   1_545  S
O2244     Cr3299   1.789       .  S
O2245     Cr2263   1.968       .  S
O2245      C2253   1.258       .  A
O2246     Cr2263   1.941       .  S
O2246      C2247   1.251       .  A
C2247      O2248   1.295       .  A
C2247      C2621   1.505       .  S
O2248     Cr2264   2.104       .  S
O2249     Cr3320   2.064   1_545  S
O2249      C2250   1.280       .  A
C2250      O2251   1.247       .  A
C2250      C2498   1.505       .  S
O2251     Cr2265   1.969       .  S
O2252     Cr2265   1.922       .  S
O2252      C3309   1.249   1_545  A
C2253      O3308   1.249       .  A
C2253      C2275   1.402       .  S
O2254     Cr2263   1.923       .  S
O2254      C2262   1.246       .  A
O2255     Cr2263   1.989       .  S
O2255      C2256   1.250       .  A
C2256      O2257   1.276       .  A
C2256      C2580   1.511       .  S
O2257     Cr2264   2.052       .  S
O2258     Cr3320   2.087   1_545  S
O2258      C2259   1.293       .  A
C2259      O2260   1.253       .  A
C2259      C2555   1.493       .  S
O2260     Cr2265   1.946       .  S
O2261     Cr2265   1.953       .  S
O2261      C3318   1.254   1_545  A
C2262      O3317   1.255       .  A
Cr2263     O2266   1.790       .  S
Cr2264     O3305   2.064       .  S
Cr2264     O3314   2.085       .  S
Cr2264     O2266   1.731       .  S
Cr2265     O3322   1.789   1_545  S
O2266     Cr3321   1.789       .  S
O2267     Cr2285   1.924       .  S
O2267      C3331   1.249   1_545  A
O2268     Cr2285   1.984       .  S
O2268      C2269   1.248       .  A
C2269      O2270   1.276       .  A
C2269      C2501   1.506       .  S
O2270     Cr3342   2.048   1_545  S
O2271     Cr2286   2.078       .  S
O2271      C2272   1.290       .  A
C2272      O2273   1.252       .  A
C2272      C2624   1.490       .  S
O2273     Cr2287   1.946       .  S
O2274     Cr2287   1.965       .  S
O2274      C2275   1.257       .  A
C2275      O3323   1.250       .  A
O2276     Cr2285   1.961       .  S
O2276      C3340   1.256   1_545  A
O2277     Cr2285   1.948       .  S
O2277      C2278   1.253       .  A
C2278      O2279   1.290       .  A
C2278      C2432   1.492       .  S
O2279     Cr3342   2.078   1_545  S
O2280     Cr2286   2.045       .  S
O2280      C2281   1.276       .  A
C2281      O2282   1.249       .  A
C2281      C2467   1.507       .  S
O2282     Cr2287   1.988       .  S
O2283     Cr2287   1.922       .  S
O2283      C2284   1.249       .  A
C2284      O3332   1.256       .  A
Cr2285     O3344   1.794   1_545  S
Cr2286     O3326   2.046       .  S
Cr2286     O3335   2.079       .  S
Cr2286     O2288   1.729       .  S
Cr2287     O2288   1.793       .  S
O2288     Cr3341   1.793       .  S
O2289     Cr2307   1.947       .  S
O2289      C2297   1.254       .  A
O2290     Cr2307   1.945       .  S
O2290      C2291   1.252       .  A
C2291      O2292   1.294       .  A
C2291      C2489   1.496       .  S
O2292     Cr2308   2.091       .  S
O2293      C2294   1.276       .  A
C2294      O2295   1.249       .  A
C2294      C2410   1.509       .  S
O2295     Cr2309   1.988       .  S
O2296     Cr2309   1.918       .  S
C2297      C2328   1.388       .  S
O2298     Cr2307   1.922       .  S
O2298      C2306   1.248       .  A
O2299     Cr2307   1.968       .  S
O2299      C2300   1.247       .  A
C2300      O2301   1.279       .  A
C2300      C2602   1.501       .  S
O2301     Cr2308   2.060       .  S
O2302      C2303   1.297       .  A
C2303      O2304   1.249       .  A
C2303      C2545   1.506       .  S
O2304     Cr2309   1.937       .  S
O2305     Cr2309   1.958       .  S
C2306      C2372   1.384       .  S
Cr2307     O2310   1.793       .  S
Cr2308     O2310   1.728       .  S
O2311     Cr2329   1.926       .  S
O2311      C2319   1.248       .  A
O2312     Cr2329   1.971       .  S
O2312      C2313   1.247       .  A
C2313      O2314   1.281       .  A
C2313      C2445   1.510       .  S
O2314     Cr2330   2.070       .  S
O2315      C2316   1.298       .  A
C2316      O2317   1.250       .  A
C2316      C2382   1.505       .  S
O2317     Cr2331   1.933       .  S
O2318     Cr2331   1.947       .  S
C2319      C2350   1.379       .  S
O2320     Cr2329   1.947       .  S
O2320      C2328   1.254       .  A
O2321     Cr2329   1.944       .  S
O2321      C2322   1.252       .  A
C2322      O2323   1.297       .  A
C2322      C2492   1.508       .  S
O2323     Cr2330   2.109       .  S
O2324      C2325   1.282       .  A
C2325      O2326   1.246       .  A
C2325      C2413   1.516       .  S
O2326     Cr2331   1.972       .  S
O2327     Cr2331   1.918       .  S
Cr2329     O2332   1.789       .  S
Cr2330     O2332   1.731       .  S
O2333     Cr2351   1.922       .  S
O2333      C2341   1.249       .  A
O2334     Cr2351   1.965       .  S
O2334      C2335   1.245       .  A
C2335      O2336   1.276       .  A
C2335      C2633   1.498       .  S
O2336     Cr2352   2.054       .  S
O2337      C2338   1.293       .  A
C2338      O2339   1.252       .  A
C2338      C2520   1.497       .  S
O2339     Cr2353   1.947       .  S
O2340     Cr2353   1.963       .  S
C2341      C2363   1.399       .  S
O2342     Cr2351   1.943       .  S
O2342      C2350   1.251       .  A
O2343     Cr2351   1.948       .  S
O2343      C2344   1.252       .  A
C2344      O2345   1.294       .  A
C2344      C2448   1.496       .  S
O2345     Cr2352   2.088       .  S
O2346      C2347   1.276       .  A
C2347      O2348   1.248       .  A
C2347      C2379   1.504       .  S
O2348     Cr2353   1.985       .  S
O2349     Cr2353   1.927       .  S
Cr2351     O2354   1.792       .  S
Cr2352     O2354   1.730       .  S
O2355     Cr2373   1.960       .  S
O2356     Cr2373   1.942       .  S
O2356      C2357   1.251       .  A
C2357      O2358   1.294       .  A
C2357      C2523   1.502       .  S
O2359     Cr2374   2.036       .  S
O2359      C2360   1.273       .  A
C2360      O2361   1.248       .  A
C2360      C2630   1.497       .  S
O2361     Cr2375   1.982       .  S
O2362     Cr2375   1.924       .  S
O2362      C2363   1.249       .  A
O2364     Cr2373   1.924       .  S
O2365     Cr2373   1.989       .  S
O2365      C2366   1.251       .  A
C2366      O2367   1.271       .  A
C2366      C2542   1.493       .  S
O2368     Cr2374   2.095       .  S
O2368      C2369   1.295       .  A
C2369      O2370   1.251       .  A
C2369      C2599   1.498       .  S
O2370     Cr2375   1.942       .  S
O2371     Cr2375   1.954       .  S
O2371      C2372   1.255       .  A
Cr2374     O2376   1.730       .  S
Cr2375     O2376   1.791       .  S
O2377     Cr2395   1.961       .  S
O2377      C2385   1.257       .  A
O2378     Cr2395   1.937       .  S
O2378      C2379   1.250       .  A
C2379      O2380   1.297       .  A
O2380     Cr2396   2.107       .  S
O2381     Cr2396   2.042       .  S
O2381      C2382   1.276       .  A
C2382      O2383   1.250       .  A
O2383     Cr2397   1.990       .  S
O2384     Cr2397   1.918       .  S
O2384      C2385   1.248       .  A
O2386     Cr2395   1.919       .  S
O2386      C2394   1.248       .  A
O2387     Cr2395   1.988       .  S
O2387      C2388   1.250       .  A
C2388      O2389   1.276       .  A
O2389     Cr2396   2.041       .  S
O2390     Cr2396   2.106       .  S
O2390      C2391   1.296       .  A
C2391      O2392   1.250       .  A
O2392     Cr2397   1.935       .  S
O2393     Cr2397   1.961       .  S
O2393      C2394   1.257       .  A
C2394      C3067   1.396   1_554  S
Cr2395     O2398   1.787       .  S
Cr2396     O2398   1.726       .  S
Cr2397     O2398   1.787       .  S
O2399     Cr2417   1.924       .  S
O2399      C2407   1.247       .  A
O2400     Cr2417   1.974       .  S
O2400      C2401   1.248       .  A
C2401      O2402   1.283       .  A
O2402     Cr2418   2.075       .  S
O2403     Cr2418   2.112       .  S
O2403      C2404   1.298       .  A
C2404      O2405   1.251       .  A
O2405     Cr2419   1.937       .  S
O2406     Cr2419   1.948       .  S
O2406      C2407   1.253       .  A
C2407      C3573   1.380   1_545  S
O2408     Cr2417   1.951       .  S
O2408      C2416   1.254       .  A
O2409     Cr2417   1.944       .  S
O2409      C2410   1.252       .  A
C2410      O2411   1.297       .  A
O2411     Cr2418   2.109       .  S
O2412     Cr2418   2.078       .  S
O2412      C2413   1.283       .  A
C2413      O2414   1.247       .  A
O2414     Cr2419   1.972       .  S
O2415     Cr2419   1.918       .  S
O2415      C2416   1.246       .  A
Cr2417     O2420   1.791       .  S
Cr2418     O2420   1.731       .  S
Cr2419     O2420   1.788       .  S
O2421     Cr2439   1.924       .  S
O2421      C2429   1.249       .  A
O2422     Cr2439   1.983       .  S
O2422      C2423   1.248       .  A
C2423      O2424   1.276       .  A
O2424     Cr2440   2.044       .  S
O2425     Cr2440   2.077       .  S
O2425      C2426   1.290       .  A
C2426      O2427   1.252       .  A
O2427     Cr2441   1.946       .  S
O2428     Cr2441   1.964       .  S
O2428      C2429   1.257       .  A
C2429      C3098   1.401   1_554  S
O2430     Cr2439   1.960       .  S
O2430      C2438   1.256       .  A
O2431     Cr2439   1.947       .  S
O2431      C2432   1.252       .  A
C2432      O2433   1.290       .  A
O2433     Cr2440   2.080       .  S
O2434     Cr2440   2.042       .  S
O2434      C2435   1.276       .  A
C2435      O2436   1.249       .  A
O2436     Cr2441   1.987       .  S
O2437     Cr2441   1.922       .  S
O2437      C2438   1.249       .  A
C2438      C3529   1.398   1_545  S
Cr2439     O2442   1.793       .  S
Cr2440     O2442   1.729       .  S
Cr2441     O2442   1.793       .  S
O2443     Cr2461   1.918       .  S
O2443      C2451   1.248       .  A
O2444     Cr2461   1.976       .  S
O2444      C2445   1.248       .  A
C2445      O2446   1.279       .  A
O2446     Cr2462   2.062       .  S
O2447     Cr2462   2.092       .  S
O2447      C2448   1.294       .  A
C2448      O2449   1.251       .  A
O2449     Cr2463   1.941       .  S
O2450     Cr2463   1.960       .  S
O2450      C2451   1.256       .  A
O2452     Cr2461   1.952       .  S
O2452      C2460   1.254       .  A
O2453     Cr2461   1.949       .  S
O2453      C2454   1.254       .  A
C2454      O2455   1.293       .  A
O2455     Cr2462   2.096       .  S
O2456     Cr2462   2.058       .  S
O2456      C2457   1.280       .  A
C2457      O2458   1.246       .  A
O2458     Cr2463   1.979       .  S
O2459     Cr2463   1.926       .  S
O2459      C2460   1.249       .  A
C2460      C3142   1.396   1_554  S
Cr2461     O2464   1.785       .  S
Cr2462     O2464   1.729       .  S
Cr2463     O2464   1.798       .  S
O2465     Cr2483   1.958       .  S
O2465      C2473   1.256       .  A
O2466     Cr2483   1.937       .  S
O2466      C2467   1.251       .  A
C2467      O2468   1.298       .  A
O2468     Cr2484   2.112       .  S
O2469     Cr2484   2.066       .  S
O2469      C2470   1.280       .  A
C2470      O2471   1.248       .  A
O2471     Cr2485   1.972       .  S
O2472     Cr2485   1.922       .  S
O2472      C2473   1.248       .  A
C2473      C3494   1.396       .  S
O2474     Cr2483   1.918       .  S
O2474      C2482   1.246       .  A
O2475     Cr2483   1.974       .  S
O2475      C2476   1.248       .  A
C2476      O2477   1.281       .  A
O2477     Cr2484   2.066       .  S
O2478     Cr2484   2.115       .  S
O2478      C2479   1.299       .  A
C2479      O2480   1.252       .  A
O2480     Cr2485   1.942       .  S
O2481     Cr2485   1.953       .  S
O2481      C2482   1.255       .  A
C2482      C3120   1.391   1_554  S
Cr2483     O2486   1.787       .  S
Cr2484     O2486   1.731       .  S
Cr2485     O2486   1.785       .  S
O2487     Cr2505   1.948       .  S
O2487      C2495   1.254       .  A
O2488     Cr2505   1.944       .  S
O2488      C2489   1.252       .  A
C2489      O2490   1.295       .  A
O2490     Cr2506   2.092       .  S
O2491     Cr2506   2.050       .  S
O2491      C2492   1.277       .  A
C2492      O2493   1.249       .  A
O2493     Cr2507   1.985       .  S
O2494     Cr2507   1.920       .  S
O2494      C2495   1.247       .  A
O2496     Cr2505   1.920       .  S
O2496      C2504   1.249       .  A
O2497     Cr2505   1.967       .  S
O2497      C2498   1.246       .  A
C2498      O2499   1.280       .  A
O2499     Cr2506   2.065       .  S
O2500     Cr2506   2.106       .  S
O2500      C2501   1.296       .  A
C2501      O2502   1.250       .  A
O2502     Cr2507   1.940       .  S
O2503     Cr2507   1.958       .  S
O2503      C2504   1.257       .  A
C2504      C3683   1.394   1_545  S
Cr2505     O2508   1.790       .  S
Cr2506     O2508   1.727       .  S
Cr2507     O2508   1.789       .  S
O2509     Cr2527   1.926       .  S
O2509      C2517   1.249       .  A
O2510     Cr2527   1.987       .  S
O2510      C2511   1.248       .  A
C2511      O2512   1.274       .  A
O2512     Cr2528   2.043       .  S
O2513     Cr2528   2.085       .  S
O2513      C2514   1.292       .  A
C2514      O2515   1.252       .  A
O2515     Cr2529   1.950       .  S
O2516     Cr2529   1.947       .  S
O2516      C2517   1.253       .  A
C2517      C3463   1.381       .  S
O2518     Cr2527   1.952       .  S
O2518      C2526   1.254       .  A
O2519     Cr2527   1.947       .  S
O2519      C2520   1.252       .  A
C2520      O2521   1.293       .  A
O2521     Cr2528   2.086       .  S
O2522     Cr2528   2.043       .  S
O2522      C2523   1.274       .  A
C2523      O2524   1.248       .  A
O2524     Cr2529   1.984       .  S
O2525     Cr2529   1.929       .  S
O2525      C2526   1.250       .  A
Cr2527     O2530   1.798       .  S
Cr2528     O2530   1.729       .  S
Cr2529     O2530   1.799       .  S
O2531     Cr2549   1.917       .  S
O2531      C2539   1.248       .  A
O2532     Cr2549   1.974       .  S
O2532      C2533   1.248       .  A
C2533      O2534   1.278       .  A
O2534     Cr2550   2.057       .  S
O2535     Cr2550   2.082       .  S
O2535      C2536   1.292       .  A
C2536      O2537   1.251       .  A
O2537     Cr2551   1.941       .  S
O2538     Cr2551   1.962       .  S
O2538      C2539   1.257       .  A
C2539      C2922   1.395       .  S
O2540     Cr2549   1.954       .  S
O2540      C2548   1.254       .  A
O2541     Cr2549   1.940       .  S
O2541      C2542   1.253       .  A
C2542      O2543   1.290       .  A
O2543     Cr2550   2.086       .  S
O2544     Cr2550   2.053       .  S
O2544      C2545   1.278       .  A
C2545      O2546   1.247       .  A
O2546     Cr2551   1.979       .  S
O2547     Cr2551   1.927       .  S
O2547      C2548   1.249       .  A
Cr2549     O2552   1.783       .  S
Cr2550     O2552   1.731       .  S
Cr2551     O2552   1.794       .  S
O2553     Cr2571   1.950       .  S
O2553      C2561   1.254       .  A
O2554     Cr2571   1.947       .  S
O2554      C2555   1.253       .  A
C2555      O2556   1.293       .  A
O2556     Cr2572   2.087       .  S
O2557     Cr2572   2.045       .  S
O2557      C2558   1.275       .  A
C2558      O2559   1.250       .  A
O2559     Cr2573   1.987       .  S
O2560     Cr2573   1.920       .  S
O2560      C2561   1.246       .  A
C2561      C3639   1.391   1_545  S
O2562     Cr2571   1.925       .  S
O2562      C2570   1.250       .  A
O2563     Cr2571   1.967       .  S
O2563      C2564   1.246       .  A
C2564      O2565   1.279       .  A
O2565     Cr2572   2.059       .  S
O2566     Cr2572   2.102       .  S
O2566      C2567   1.295       .  A
C2567      O2568   1.250       .  A
O2568     Cr2573   1.937       .  S
O2569     Cr2573   1.965       .  S
O2569      C2570   1.258       .  A
C2570      C2957   1.401       .  S
Cr2571     O2574   1.788       .  S
Cr2572     O2574   1.730       .  S
Cr2573     O2574   1.788       .  S
O2575     Cr2593   1.922       .  S
O2575      C2583   1.248       .  A
O2576     Cr2593   1.965       .  S
O2576      C2577   1.245       .  A
C2577      O2578   1.284       .  A
O2578     Cr2594   2.082       .  S
O2579     Cr2594   2.105       .  S
O2579      C2580   1.296       .  A
C2580      O2581   1.254       .  A
O2581     Cr2595   1.952       .  S
O2582     Cr2595   1.949       .  S
O2582      C2583   1.254       .  A
C2583      C3617   1.391       .  S
O2584     Cr2593   1.950       .  S
O2584      C2592   1.254       .  A
O2585     Cr2593   1.945       .  S
O2585      C2586   1.252       .  A
C2586      O2587   1.296       .  A
O2587     Cr2594   2.096       .  S
O2588     Cr2594   2.074       .  S
O2588      C2589   1.282       .  A
C2589      O2590   1.247       .  A
O2590     Cr2595   1.972       .  S
O2591     Cr2595   1.921       .  S
O2591      C2592   1.247       .  A
C2592      C3010   1.391       .  S
Cr2593     O2596   1.796       .  S
Cr2594     O2596   1.728       .  S
Cr2595     O2596   1.788       .  S
O2597     Cr2615   1.965       .  S
O2597      C2605   1.259       .  A
O2598     Cr2615   1.947       .  S
O2598      C2599   1.251       .  A
C2599      O2600   1.294       .  A
O2600     Cr2616   2.090       .  S
O2601     Cr2616   2.058       .  S
O2601      C2602   1.278       .  A
C2602      O2603   1.246       .  A
O2603     Cr2617   1.969       .  S
O2604     Cr2617   1.920       .  S
O2604      C2605   1.248       .  A
O2606     Cr2615   1.922       .  S
O2606      C2614   1.246       .  A
O2607     Cr2615   1.984       .  S
O2607      C2608   1.249       .  A
C2608      O2609   1.277       .  A
O2609     Cr2616   2.052       .  S
O2610     Cr2616   2.083       .  S
O2610      C2611   1.292       .  A
C2611      O2612   1.253       .  A
O2612     Cr2617   1.949       .  S
O2613     Cr2617   1.951       .  S
O2613      C2614   1.254       .  A
C2614      C2988   1.393       .  S
Cr2615     O2618   1.795       .  S
Cr2616     O2618   1.728       .  S
Cr2617     O2618   1.791       .  S
O2619     Cr2637   1.922       .  S
O2619      C2627   1.247       .  A
O2620     Cr2637   1.986       .  S
O2620      C2621   1.248       .  A
C2621      O2622   1.275       .  A
O2622     Cr2638   2.045       .  S
O2623     Cr2638   2.081       .  S
O2623      C2624   1.291       .  A
C2624      O2625   1.253       .  A
O2625     Cr2639   1.945       .  S
O2626     Cr2639   1.953       .  S
O2626      C2627   1.255       .  A
C2627      C3560   1.394       .  S
O2628     Cr2637   1.957       .  S
O2628      C2636   1.255       .  A
O2629     Cr2637   1.935       .  S
O2629      C2630   1.250       .  A
C2630      O2631   1.294       .  A
O2631     Cr2638   2.097       .  S
O2632     Cr2638   2.054       .  S
O2632      C2633   1.278       .  A
C2633      O2634   1.247       .  A
O2634     Cr2639   1.969       .  S
O2635     Cr2639   1.926       .  S
O2635      C2636   1.249       .  A
Cr2637     O2640   1.788       .  S
Cr2638     O2640   1.733       .  S
Cr2639     O2640   1.792       .  S
O2641     Cr2659   1.949       .  S
O2641      C2649   1.254   1_556  A
O2642     Cr2659   1.942       .  S
O2642      C2643   1.252       .  A
C2643      O2644   1.300       .  A
C2643      C3117   1.512       .  S
O2645     Cr2660   2.113       .  S
O2645      C2646   1.298       .  A
C2646      O2647   1.250       .  A
C2646      C3004   1.506       .  S
O2647     Cr2661   1.935       .  S
O2648     Cr2661   1.945       .  S
C2649      C2702   1.388       .  S
O2650     Cr2659   1.920       .  S
O2650      C2658   1.247       .  A
O2651     Cr2659   1.973       .  S
O2651      C2652   1.247       .  A
C2652      O2653   1.281       .  A
C2652      C3136   1.510       .  S
O2654     Cr2660   2.079       .  S
O2654      C2655   1.283       .  A
C2655      O2656   1.246       .  A
C2655      C2985   1.515       .  S
O2656     Cr2661   1.970       .  S
O2657     Cr2661   1.918       .  S
C2658      C2680   1.375   1_556  S
Cr2660     O2662   1.729       .  S
Cr2661     O2662   1.790       .  S
O2663     Cr2681   1.967       .  S
O2664     Cr2681   1.936       .  S
O2664      C2665   1.250       .  A
C2665      O2666   1.296       .  A
C2665      C2951   1.502       .  S
O2666     Cr2682   2.104       .  S
O2667      C2668   1.278       .  A
C2668      O2669   1.245       .  A
C2668      C3092   1.501       .  S
O2669     Cr2683   1.966       .  S
O2670     Cr2683   1.923       .  S
O2670      C2671   1.250       .  A
C2671      C2715   1.399       .  S
O2672     Cr2681   1.919       .  S
O2673     Cr2681   1.988       .  S
O2673      C2674   1.250       .  A
C2674      O2675   1.274       .  A
C2674      C2982   1.507       .  S
O2675     Cr2682   2.045       .  S
O2676      C2677   1.295       .  A
C2677      O2678   1.251       .  A
C2677      C3139   1.494       .  S
O2678     Cr2683   1.940       .  S
O2679     Cr2683   1.943       .  S
O2679      C2680   1.251   1_556  A
Cr2681     O2684   1.787       .  S
Cr2682     O2684   1.729       .  S
O2685     Cr2703   1.926       .  S
O2685      C2693   1.249       .  A
O2686     Cr2703   1.968       .  S
O2686      C2687   1.247       .  A
C2687      O2688   1.280       .  A
C2687      C3061   1.503       .  S
O2689     Cr2704   2.105       .  S
O2689      C2690   1.296       .  A
C2690      O2691   1.249       .  A
C2690      C2916   1.503       .  S
O2691     Cr2705   1.935       .  S
O2692     Cr2705   1.955       .  S
C2693      C2724   1.387   1_556  S
O2694     Cr2703   1.947       .  S
O2694      C2702   1.254   1_556  A
O2695     Cr2703   1.948       .  S
O2695      C2696   1.252       .  A
C2696      O2697   1.293       .  A
C2696      C3114   1.497       .  S
O2698     Cr2704   2.047       .  S
O2698      C2699   1.276       .  A
C2699      O2700   1.249       .  A
C2699      C3007   1.509       .  S
O2700     Cr2705   1.991       .  S
O2701     Cr2705   1.920       .  S
Cr2704     O2706   1.731       .  S
Cr2705     O2706   1.793       .  S
O2707     Cr2725   1.924       .  S
O2707      C2715   1.249       .  A
O2708     Cr2725   1.982       .  S
O2708      C2709   1.247       .  A
C2709      O2710   1.274       .  A
C2709      C3095   1.500       .  S
O2711     Cr2726   2.074       .  S
O2711      C2712   1.289       .  A
C2712      O2713   1.252       .  A
C2712      C2954   1.488       .  S
O2713     Cr2727   1.947       .  S
O2714     Cr2727   1.961       .  S
O2716     Cr2725   1.955       .  S
O2716      C2724   1.255   1_556  A
O2717     Cr2725   1.944       .  S
O2717      C2718   1.251       .  A
C2718      O2719   1.291       .  A
C2718      C3064   1.489       .  S
O2720     Cr2726   2.040       .  S
O2720      C2721   1.276       .  A
C2721      O2722   1.249       .  A
C2721      C2919   1.503       .  S
O2722     Cr2727   1.988       .  S
O2723     Cr2727   1.925       .  S
Cr2726     O2728   1.730       .  S
Cr2727     O2728   1.796       .  S
O2729     Cr2747   1.923       .  S
O2729      C2737   1.248       .  A
O2730     Cr2747   1.965       .  S
O2730      C2731   1.245       .  A
C2731      O2732   1.283       .  A
C2731      C3105   1.510       .  S
O2732     Cr2748   2.075       .  S
O2733     Cr3804   2.102   1_545  S
O2733      C2734   1.295       .  A
C2734      O2735   1.252       .  A
C2734      C3086   1.506       .  S
O2735     Cr2749   1.946       .  S
O2736     Cr2749   1.952       .  S
O2736      C3793   1.255   1_545  A
C2737      O3792   1.255       .  A
C2737      C2790   1.394       .  S
O2738     Cr2747   1.951       .  S
O2738      C2746   1.254       .  A
O2739     Cr2747   1.943       .  S
O2739      C2740   1.253       .  A
C2740      O2741   1.294       .  A
C2740      C3042   1.496       .  S
O2741     Cr2748   2.092       .  S
O2742     Cr3804   2.075   1_545  S
O2742      C2743   1.282       .  A
C2743      O2744   1.247       .  A
C2743      C2929   1.516       .  S
O2744     Cr2749   1.974       .  S
O2745     Cr2749   1.919       .  S
O2745      C3802   1.246   1_545  A
C2746      O3801   1.247       .  A
C2746      C2759   1.391       .  S
Cr2747     O2750   1.792       .  S
Cr2748     O3789   2.101       .  S
Cr2748     O3798   2.070       .  S
Cr2748     O2750   1.730       .  S
Cr2749     O3806   1.788   1_545  S
O2750     Cr3805   1.787       .  S
O2751     Cr2769   1.952       .  S
O2751      C2759   1.254       .  A
O2752     Cr2769   1.941       .  S
O2752      C2753   1.252       .  A
C2753      O2754   1.296       .  A
C2753      C3039   1.505       .  S
O2754     Cr2770   2.106       .  S
O2755     Cr3826   2.048   1_545  S
O2755      C2756   1.277       .  A
C2756      O2757   1.249       .  A
C2756      C2932   1.508       .  S
O2757     Cr2771   1.988       .  S
O2758     Cr2771   1.919       .  S
O2758      C3815   1.246   1_545  A
C2759      O3814   1.246       .  A
O2760     Cr2769   1.919       .  S
O2760      C2768   1.248       .  A
O2761     Cr2769   1.974       .  S
O2761      C2762   1.248       .  A
C2762      O2763   1.278       .  A
C2762      C2998   1.503       .  S
O2763     Cr2770   2.058       .  S
O2764     Cr3826   2.111   1_545  S
O2764      C2765   1.298       .  A
C2765      O2766   1.249       .  A
C2765      C2963   1.504       .  S
O2766     Cr2771   1.932       .  S
O2767     Cr2771   1.967       .  S
O2767      C3824   1.259   1_545  A
C2768      O3823   1.259       .  A
C2768      C2812   1.398       .  S
Cr2769     O2772   1.781       .  S
Cr2770     O3811   2.045       .  S
Cr2770     O3820   2.110       .  S
Cr2770     O2772   1.729       .  S
Cr2771     O3828   1.788   1_545  S
O2772     Cr3827   1.789       .  S
O2773     Cr2791   1.963       .  S
O2773      C2781   1.257       .  A
O2774     Cr2791   1.942       .  S
O2774      C2775   1.251       .  A
C2775      O2776   1.294       .  A
C2775      C3149   1.503       .  S
O2776     Cr2792   2.100       .  S
O2777     Cr3848   2.064   1_545  S
O2777      C2778   1.280       .  A
C2778      O2779   1.246       .  A
C2778      C3026   1.504       .  S
O2779     Cr2793   1.968       .  S
O2780     Cr2793   1.922       .  S
O2780      C3837   1.249   1_545  A
C2781      O3836   1.249       .  A
C2781      C2803   1.399       .  S
O2782     Cr2791   1.923       .  S
O2782      C2790   1.247       .  A
O2783     Cr2791   1.987       .  S
O2783      C2784   1.249       .  A
C2784      O2785   1.278       .  A
C2784      C3108   1.511       .  S
O2785     Cr2792   2.053       .  S
O2786     Cr3848   2.088   1_545  S
O2786      C2787   1.293       .  A
C2787      O2788   1.253       .  A
C2787      C3083   1.494       .  S
O2788     Cr2793   1.946       .  S
O2789     Cr2793   1.952       .  S
O2789      C3846   1.254   1_545  A
C2790      O3845   1.254       .  A
Cr2791     O2794   1.791       .  S
Cr2792     O3833   2.068       .  S
Cr2792     O3842   2.086       .  S
Cr2792     O2794   1.730       .  S
Cr2793     O3850   1.789   1_545  S
O2794     Cr3849   1.790       .  S
O2795     Cr2813   1.924       .  S
O2795      C3859   1.249   1_545  A
O2796     Cr2813   1.984       .  S
O2796      C2797   1.248       .  A
C2797      O2798   1.277       .  A
C2797      C3029   1.506       .  S
O2798     Cr3870   2.049   1_545  S
O2799     Cr2814   2.076       .  S
O2799      C2800   1.290       .  A
C2800      O2801   1.253       .  A
C2800      C3152   1.489       .  S
O2801     Cr2815   1.947       .  S
O2802     Cr2815   1.960       .  S
O2802      C2803   1.257       .  A
C2803      O3851   1.249       .  A
O2804     Cr2813   1.961       .  S
O2804      C3868   1.256   1_545  A
O2805     Cr2813   1.947       .  S
O2805      C2806   1.252       .  A
C2806      O2807   1.290       .  A
C2806      C2960   1.490       .  S
O2807     Cr3870   2.077   1_545  S
O2808     Cr2814   2.048       .  S
O2808      C2809   1.277       .  A
C2809      O2810   1.248       .  A
C2809      C2995   1.507       .  S
O2810     Cr2815   1.985       .  S
O2811     Cr2815   1.923       .  S
O2811      C2812   1.249       .  A
C2812      O3860   1.256       .  A
Cr2813     O3872   1.793   1_545  S
Cr2814     O3854   2.050       .  S
Cr2814     O3863   2.079       .  S
Cr2814     O2816   1.728       .  S
Cr2815     O2816   1.794       .  S
O2816     Cr3869   1.794       .  S
O2817     Cr2835   1.948       .  S
O2817      C2825   1.254       .  A
O2818     Cr2835   1.947       .  S
O2818      C2819   1.252       .  A
C2819      O2820   1.294       .  A
C2819      C3017   1.498       .  S
O2820     Cr2836   2.092       .  S
O2821      C2822   1.277       .  A
C2822      O2823   1.249       .  A
C2822      C2938   1.512       .  S
O2823     Cr2837   1.989       .  S
O2824     Cr2837   1.919       .  S
C2825      C2856   1.388       .  S
O2826     Cr2835   1.921       .  S
O2826      C2834   1.248       .  A
O2827     Cr2835   1.971       .  S
O2827      C2828   1.247       .  A
C2828      O2829   1.281       .  A
C2828      C3130   1.508       .  S
O2829     Cr2836   2.068       .  S
O2830      C2831   1.297       .  A
C2831      O2832   1.249       .  A
C2831      C3073   1.506       .  S
O2832     Cr2837   1.938       .  S
O2833     Cr2837   1.958       .  S
C2834      C2900   1.384       .  S
Cr2835     O2838   1.795       .  S
Cr2836     O2838   1.728       .  S
O2839     Cr2857   1.926       .  S
O2839      C2847   1.248       .  A
O2840     Cr2857   1.972       .  S
O2840      C2841   1.247       .  A
C2841      O2842   1.283       .  A
C2841      C2973   1.514       .  S
O2842     Cr2858   2.076       .  S
O2843      C2844   1.298       .  A
C2844      O2845   1.250       .  A
C2844      C2910   1.506       .  S
O2845     Cr2859   1.935       .  S
O2846     Cr2859   1.946       .  S
C2847      C2878   1.380       .  S
O2848     Cr2857   1.947       .  S
O2848      C2856   1.254       .  A
O2849     Cr2857   1.945       .  S
O2849      C2850   1.252       .  A
C2850      O2851   1.297       .  A
C2850      C3020   1.510       .  S
O2851     Cr2858   2.109       .  S
O2852      C2853   1.283       .  A
C2853      O2854   1.246       .  A
C2853      C2941   1.516       .  S
O2854     Cr2859   1.971       .  S
O2855     Cr2859   1.920       .  S
Cr2857     O2860   1.790       .  S
Cr2858     O2860   1.731       .  S
O2861     Cr2879   1.925       .  S
O2861      C2869   1.249       .  A
O2862     Cr2879   1.965       .  S
O2862      C2863   1.245       .  A
C2863      O2864   1.276       .  A
C2863      C3161   1.498       .  S
O2864     Cr2880   2.055       .  S
O2865      C2866   1.292       .  A
C2866      O2867   1.252       .  A
C2866      C3048   1.496       .  S
O2867     Cr2881   1.948       .  S
O2868     Cr2881   1.963       .  S
C2869      C2891   1.401       .  S
O2870     Cr2879   1.943       .  S
O2870      C2878   1.251       .  A
O2871     Cr2879   1.949       .  S
O2871      C2872   1.253       .  A
C2872      O2873   1.292       .  A
C2872      C2976   1.495       .  S
O2873     Cr2880   2.085       .  S
O2874      C2875   1.277       .  A
C2875      O2876   1.249       .  A
C2875      C2907   1.505       .  S
O2876     Cr2881   1.985       .  S
O2877     Cr2881   1.928       .  S
Cr2879     O2882   1.793       .  S
Cr2880     O2882   1.731       .  S
O2883     Cr2901   1.961       .  S
O2884     Cr2901   1.942       .  S
O2884      C2885   1.250       .  A
C2885      O2886   1.293       .  A
C2885      C3051   1.501       .  S
O2887     Cr2902   2.037       .  S
O2887      C2888   1.274       .  A
C2888      O2889   1.248       .  A
C2888      C3158   1.498       .  S
O2889     Cr2903   1.981       .  S
O2890     Cr2903   1.927       .  S
O2890      C2891   1.250       .  A
O2892     Cr2901   1.923       .  S
O2893     Cr2901   1.991       .  S
O2893      C2894   1.252       .  A
C2894      O2895   1.271       .  A
C2894      C3070   1.495       .  S
O2896     Cr2902   2.092       .  S
O2896      C2897   1.294       .  A
C2897      O2898   1.251       .  A
C2897      C3127   1.497       .  S
O2898     Cr2903   1.942       .  S
O2899     Cr2903   1.954       .  S
O2899      C2900   1.255       .  A
Cr2902     O2904   1.731       .  S
Cr2903     O2904   1.792       .  S
O2905     Cr2923   1.958       .  S
O2905      C2913   1.257       .  A
O2906     Cr2923   1.938       .  S
O2906      C2907   1.251       .  A
C2907      O2908   1.297       .  A
O2908     Cr2924   2.107       .  S
O2909     Cr2924   2.044       .  S
O2909      C2910   1.277       .  A
C2910      O2911   1.250       .  A
O2911     Cr2925   1.989       .  S
O2912     Cr2925   1.917       .  S
O2912      C2913   1.248       .  A
O2914     Cr2923   1.919       .  S
O2914      C2922   1.248       .  A
O2915     Cr2923   1.987       .  S
O2915      C2916   1.249       .  A
C2916      O2917   1.276       .  A
O2917     Cr2924   2.042       .  S
O2918     Cr2924   2.108       .  S
O2918      C2919   1.297       .  A
C2919      O2920   1.249       .  A
O2920     Cr2925   1.933       .  S
O2921     Cr2925   1.961       .  S
O2921      C2922   1.256       .  A
Cr2923     O2926   1.786       .  S
Cr2924     O2926   1.725       .  S
Cr2925     O2926   1.788       .  S
O2927     Cr2945   1.925       .  S
O2927      C2935   1.248       .  A
O2928     Cr2945   1.974       .  S
O2928      C2929   1.248       .  A
C2929      O2930   1.283       .  A
O2930     Cr2946   2.076       .  S
O2931     Cr2946   2.113       .  S
O2931      C2932   1.298       .  A
C2932      O2933   1.251       .  A
O2933     Cr2947   1.937       .  S
O2934     Cr2947   1.948       .  S
O2934      C2935   1.252       .  A
C2935      C4101   1.380   1_545  S
O2936     Cr2945   1.949       .  S
O2936      C2944   1.254       .  A
O2937     Cr2945   1.947       .  S
O2937      C2938   1.253       .  A
C2938      O2939   1.298       .  A
O2939     Cr2946   2.111       .  S
O2940     Cr2946   2.078       .  S
O2940      C2941   1.283       .  A
C2941      O2942   1.246       .  A
O2942     Cr2947   1.972       .  S
O2943     Cr2947   1.917       .  S
O2943      C2944   1.246       .  A
Cr2945     O2948   1.791       .  S
Cr2946     O2948   1.730       .  S
Cr2947     O2948   1.790       .  S
O2949     Cr2967   1.924       .  S
O2949      C2957   1.249       .  A
O2950     Cr2967   1.983       .  S
O2950      C2951   1.248       .  A
C2951      O2952   1.275       .  A
O2952     Cr2968   2.043       .  S
O2953     Cr2968   2.075       .  S
O2953      C2954   1.289       .  A
C2954      O2955   1.252       .  A
O2955     Cr2969   1.945       .  S
O2956     Cr2969   1.964       .  S
O2956      C2957   1.257       .  A
O2958     Cr2967   1.961       .  S
O2958      C2966   1.256       .  A
O2959     Cr2967   1.946       .  S
O2959      C2960   1.252       .  A
C2960      O2961   1.290       .  A
O2961     Cr2968   2.079       .  S
O2962     Cr2968   2.043       .  S
O2962      C2963   1.276       .  A
C2963      O2964   1.249       .  A
O2964     Cr2969   1.987       .  S
O2965     Cr2969   1.922       .  S
O2965      C2966   1.249       .  A
C2966      C4057   1.398   1_545  S
Cr2967     O2970   1.793       .  S
Cr2968     O2970   1.729       .  S
Cr2969     O2970   1.793       .  S
O2971     Cr2989   1.920       .  S
O2971      C2979   1.247       .  A
O2972     Cr2989   1.974       .  S
O2972      C2973   1.247       .  A
C2973      O2974   1.281       .  A
O2974     Cr2990   2.071       .  S
O2975     Cr2990   2.089       .  S
O2975      C2976   1.294       .  A
C2976      O2977   1.252       .  A
O2977     Cr2991   1.944       .  S
O2978     Cr2991   1.955       .  S
O2978      C2979   1.254       .  A
O2980     Cr2989   1.952       .  S
O2980      C2988   1.254       .  A
O2981     Cr2989   1.949       .  S
O2981      C2982   1.254       .  A
C2982      O2983   1.294       .  A
O2983     Cr2990   2.099       .  S
O2984     Cr2990   2.079       .  S
O2984      C2985   1.284       .  A
C2985      O2986   1.246       .  A
O2986     Cr2991   1.968       .  S
O2987     Cr2991   1.922       .  S
O2987      C2988   1.248       .  A
Cr2989     O2992   1.787       .  S
Cr2990     O2992   1.731       .  S
Cr2991     O2992   1.795       .  S
O2993     Cr3011   1.963       .  S
O2993      C3001   1.258       .  A
O2994     Cr3011   1.933       .  S
O2994      C2995   1.249       .  A
C2995      O2996   1.299       .  A
O2996     Cr3012   2.114       .  S
O2997     Cr3012   2.057       .  S
O2997      C2998   1.278       .  A
C2998      O2999   1.248       .  A
O2999     Cr3013   1.974       .  S
O3000     Cr3013   1.920       .  S
O3000      C3001   1.249       .  A
C3001      C4022   1.397       .  S
O3002     Cr3011   1.920       .  S
O3002      C3010   1.247       .  A
O3003     Cr3011   1.986       .  S
O3003      C3004   1.249       .  A
C3004      O3005   1.277       .  A
O3005     Cr3012   2.046       .  S
O3006     Cr3012   2.111       .  S
O3006      C3007   1.298       .  A
C3007      O3008   1.252       .  A
O3008     Cr3013   1.942       .  S
O3009     Cr3013   1.951       .  S
O3009      C3010   1.254       .  A
Cr3011     O3014   1.788       .  S
Cr3012     O3014   1.729       .  S
Cr3013     O3014   1.783       .  S
O3015     Cr3033   1.948       .  S
O3015      C3023   1.253       .  A
O3016     Cr3033   1.946       .  S
O3016      C3017   1.253       .  A
C3017      O3018   1.295       .  A
O3018     Cr3034   2.094       .  S
O3019     Cr3034   2.052       .  S
O3019      C3020   1.277       .  A
C3020      O3021   1.249       .  A
O3021     Cr3035   1.987       .  S
O3022     Cr3035   1.920       .  S
O3022      C3023   1.247       .  A
O3024     Cr3033   1.922       .  S
O3024      C3032   1.249       .  A
O3025     Cr3033   1.966       .  S
O3025      C3026   1.245       .  A
C3026      O3027   1.280       .  A
O3027     Cr3034   2.066       .  S
O3028     Cr3034   2.106       .  S
O3028      C3029   1.296       .  A
C3029      O3030   1.250       .  A
O3030     Cr3035   1.940       .  S
O3031     Cr3035   1.957       .  S
O3031      C3032   1.257       .  A
C3032      C4211   1.394   1_545  S
Cr3033     O3036   1.791       .  S
Cr3034     O3036   1.726       .  S
Cr3035     O3036   1.789       .  S
O3037     Cr3055   1.925       .  S
O3037      C3045   1.249       .  A
O3038     Cr3055   1.987       .  S
O3038      C3039   1.248       .  A
C3039      O3040   1.274       .  A
O3040     Cr3056   2.044       .  S
O3041     Cr3056   2.083       .  S
O3041      C3042   1.292       .  A
C3042      O3043   1.251       .  A
O3043     Cr3057   1.949       .  S
O3044     Cr3057   1.947       .  S
O3044      C3045   1.253       .  A
C3045      C3991   1.381       .  S
O3046     Cr3055   1.952       .  S
O3046      C3054   1.254       .  A
O3047     Cr3055   1.947       .  S
O3047      C3048   1.252       .  A
C3048      O3049   1.293       .  A
O3049     Cr3056   2.086       .  S
O3050     Cr3056   2.042       .  S
O3050      C3051   1.274       .  A
C3051      O3052   1.248       .  A
O3052     Cr3057   1.982       .  S
O3053     Cr3057   1.931       .  S
O3053      C3054   1.251       .  A
Cr3055     O3058   1.797       .  S
Cr3056     O3058   1.730       .  S
Cr3057     O3058   1.799       .  S
O3059     Cr3077   1.919       .  S
O3059      C3067   1.249       .  A
O3060     Cr3077   1.972       .  S
O3060      C3061   1.247       .  A
C3061      O3062   1.278       .  A
O3062     Cr3078   2.057       .  S
O3063     Cr3078   2.083       .  S
O3063      C3064   1.292       .  A
C3064      O3065   1.250       .  A
O3065     Cr3079   1.938       .  S
O3066     Cr3079   1.963       .  S
O3066      C3067   1.258       .  A
O3068     Cr3077   1.951       .  S
O3068      C3076   1.253       .  A
O3069     Cr3077   1.943       .  S
O3069      C3070   1.254       .  A
C3070      O3071   1.291       .  A
O3071     Cr3078   2.087       .  S
O3072     Cr3078   2.053       .  S
O3072      C3073   1.278       .  A
C3073      O3074   1.247       .  A
O3074     Cr3079   1.979       .  S
O3075     Cr3079   1.927       .  S
O3075      C3076   1.248       .  A
Cr3077     O3080   1.782       .  S
Cr3078     O3080   1.731       .  S
Cr3079     O3080   1.795       .  S
O3081     Cr3099   1.951       .  S
O3081      C3089   1.255       .  A
O3082     Cr3099   1.946       .  S
O3082      C3083   1.253       .  A
C3083      O3084   1.293       .  A
O3084     Cr3100   2.087       .  S
O3085     Cr3100   2.045       .  S
O3085      C3086   1.275       .  A
C3086      O3087   1.250       .  A
O3087     Cr3101   1.987       .  S
O3088     Cr3101   1.920       .  S
O3088      C3089   1.246       .  A
C3089      C4167   1.391   1_545  S
O3090     Cr3099   1.924       .  S
O3090      C3098   1.250       .  A
O3091     Cr3099   1.968       .  S
O3091      C3092   1.247       .  A
C3092      O3093   1.279       .  A
O3093     Cr3100   2.060       .  S
O3094     Cr3100   2.101       .  S
O3094      C3095   1.295       .  A
C3095      O3096   1.250       .  A
O3096     Cr3101   1.936       .  S
O3097     Cr3101   1.966       .  S
O3097      C3098   1.258       .  A
Cr3099     O3102   1.788       .  S
Cr3100     O3102   1.730       .  S
Cr3101     O3102   1.788       .  S
O3103     Cr3121   1.919       .  S
O3103      C3111   1.249       .  A
O3104     Cr3121   1.967       .  S
O3104      C3105   1.246       .  A
C3105      O3106   1.282       .  A
O3106     Cr3122   2.073       .  S
O3107     Cr3122   2.110       .  S
O3107      C3108   1.297       .  A
C3108      O3109   1.251       .  A
O3109     Cr3123   1.945       .  S
O3110     Cr3123   1.956       .  S
O3110      C3111   1.256       .  A
C3111      C4145   1.393       .  S
O3112     Cr3121   1.948       .  S
O3112      C3120   1.253       .  A
O3113     Cr3121   1.945       .  S
O3113      C3114   1.252       .  A
C3114      O3115   1.295       .  A
O3115     Cr3122   2.093       .  S
O3116     Cr3122   2.057       .  S
O3116      C3117   1.279       .  A
C3117      O3118   1.248       .  A
O3118     Cr3123   1.985       .  S
O3119     Cr3123   1.922       .  S
O3119      C3120   1.247       .  A
Cr3121     O3124   1.792       .  S
Cr3122     O3124   1.726       .  S
Cr3123     O3124   1.790       .  S
O3125     Cr3143   1.957       .  S
O3125      C3133   1.256       .  A
O3126     Cr3143   1.952       .  S
O3126      C3127   1.253       .  A
C3127      O3128   1.292       .  A
O3128     Cr3144   2.085       .  S
O3129     Cr3144   2.068       .  S
O3129      C3130   1.280       .  A
C3130      O3131   1.246       .  A
O3131     Cr3145   1.968       .  S
O3132     Cr3145   1.922       .  S
O3132      C3133   1.246       .  A
O3134     Cr3143   1.922       .  S
O3134      C3142   1.246       .  A
O3135     Cr3143   1.971       .  S
O3135      C3136   1.247       .  A
C3136      O3137   1.281       .  A
O3137     Cr3144   2.068       .  S
O3138     Cr3144   2.085       .  S
O3138      C3139   1.293       .  A
C3139      O3140   1.253       .  A
O3140     Cr3145   1.948       .  S
O3141     Cr3145   1.956       .  S
O3141      C3142   1.255       .  A
Cr3143     O3146   1.793       .  S
Cr3144     O3146   1.730       .  S
Cr3145     O3146   1.794       .  S
O3147     Cr3165   1.922       .  S
O3147      C3155   1.247       .  A
O3148     Cr3165   1.985       .  S
O3148      C3149   1.248       .  A
C3149      O3150   1.275       .  A
O3150     Cr3166   2.043       .  S
O3151     Cr3166   2.081       .  S
O3151      C3152   1.291       .  A
C3152      O3153   1.253       .  A
O3153     Cr3167   1.944       .  S
O3154     Cr3167   1.953       .  S
O3154      C3155   1.254       .  A
C3155      C4088   1.394       .  S
O3156     Cr3165   1.957       .  S
O3156      C3164   1.255       .  A
O3157     Cr3165   1.934       .  S
O3157      C3158   1.249       .  A
C3158      O3159   1.294       .  A
O3159     Cr3166   2.098       .  S
O3160     Cr3166   2.055       .  S
O3160      C3161   1.278       .  A
C3161      O3162   1.247       .  A
O3162     Cr3167   1.968       .  S
O3163     Cr3167   1.927       .  S
O3163      C3164   1.249       .  A
Cr3165     O3168   1.787       .  S
Cr3166     O3168   1.733       .  S
Cr3167     O3168   1.792       .  S
O3169     Cr3187   1.920       .  S
O3169      C3177   1.246       .  A
O3170     Cr3187   1.974       .  S
O3170      C3171   1.248       .  A
C3171      O3172   1.283       .  A
C3171      C3645   1.514       .  S
O3172     Cr3716   2.074       .  S
O3173     Cr3188   2.111       .  S
O3173      C3174   1.298       .  A
C3174      O3175   1.250       .  A
C3174      C3532   1.505       .  S
O3175     Cr3189   1.935       .  S
O3176     Cr3189   1.945       .  S
O3176      C3705   1.252   1_554  A
C3177      O3704   1.252       .  A
C3177      C3230   1.374       .  S
O3178     Cr3187   1.948       .  S
O3178      C3186   1.254       .  A
O3179     Cr3187   1.942       .  S
O3179      C3180   1.251       .  A
C3180      O3181   1.297       .  A
C3180      C3664   1.508       .  S
O3181     Cr3716   2.109       .  S
O3182     Cr3188   2.080       .  S
O3182      C3183   1.284       .  A
C3183      O3184   1.246       .  A
C3183      C3513   1.516       .  S
O3184     Cr3189   1.970       .  S
O3185     Cr3189   1.919       .  S
O3185      C3714   1.247       .  A
C3186      O3713   1.247       .  A
C3186      C3208   1.388       .  S
Cr3187     O3718   1.789       .  S
Cr3188     O3700   2.077   1_554  S
Cr3188     O3709   2.108   1_554  S
Cr3188     O3190   1.730       .  S
Cr3189     O3190   1.789       .  S
O3190     Cr3715   1.790   1_554  S
O3191     Cr3209   1.967       .  S
O3191      C3727   1.258   1_554  A
O3192     Cr3209   1.935       .  S
O3192      C3193   1.250       .  A
C3193      O3194   1.296       .  A
C3193      C3479   1.502       .  S
O3194     Cr3210   2.105   1_554  S
O3195     Cr3738   2.060       .  S
O3195      C3196   1.279       .  A
C3196      O3197   1.246       .  A
C3196      C3620   1.501       .  S
O3197     Cr3211   1.966       .  S
O3198     Cr3211   1.924       .  S
O3198      C3199   1.250       .  A
C3199      O3719   1.258       .  A
C3199      C3243   1.401       .  S
O3200     Cr3209   1.918       .  S
O3200      C3736   1.246       .  A
O3201     Cr3209   1.988       .  S
O3201      C3202   1.250       .  A
C3202      O3203   1.274       .  A
C3202      C3510   1.506       .  S
O3203     Cr3210   2.044   1_554  S
O3204     Cr3738   2.089       .  S
O3204      C3205   1.293       .  A
C3205      O3206   1.252       .  A
C3205      C3667   1.493       .  S
O3206     Cr3211   1.943       .  S
O3207     Cr3211   1.947       .  S
O3207      C3208   1.253       .  A
C3208      O3728   1.246       .  A
Cr3209     O3212   1.788   1_554  S
Cr3210     O3723   2.060       .  S
Cr3210     O3732   2.090       .  S
Cr3210     O3212   1.729       .  S
Cr3211     O3740   1.788       .  S
O3212     Cr3739   1.788       .  S
O3213     Cr3231   1.926       .  S
O3213      C3221   1.249       .  A
O3214     Cr3231   1.967       .  S
O3214      C3215   1.246       .  A
C3215      O3216   1.279       .  A
C3215      C3589   1.503       .  S
O3216     Cr3760   2.062       .  S
O3217     Cr3232   2.104   1_554  S
O3217      C3218   1.295       .  A
C3218      O3219   1.250       .  A
C3218      C3444   1.503       .  S
O3219     Cr3233   1.936       .  S
O3220     Cr3233   1.956       .  S
O3220      C3749   1.255   1_554  A
C3221      O3748   1.255       .  A
C3221      C3252   1.385       .  S
O3222     Cr3231   1.940       .  S
O3222      C3230   1.251       .  A
O3223     Cr3231   1.947       .  S
O3223      C3224   1.252       .  A
C3224      O3225   1.294       .  A
C3224      C3642   1.498       .  S
O3225     Cr3760   2.091       .  S
O3226     Cr3232   2.049   1_554  S
O3226      C3227   1.276       .  A
C3227      O3228   1.249       .  A
C3227      C3535   1.510       .  S
O3228     Cr3233   1.991       .  S
O3229     Cr3233   1.920       .  S
O3229      C3758   1.247       .  A
C3230      O3757   1.247       .  A
Cr3231     O3762   1.795       .  S
Cr3232     O3744   2.063       .  S
Cr3232     O3753   2.091       .  S
Cr3232     O3234   1.731       .  S
Cr3233     O3234   1.793   1_554  S
O3234     Cr3759   1.795       .  S
O3235     Cr3253   1.924       .  S
O3235      C3243   1.249       .  A
O3236     Cr3253   1.982       .  S
O3236      C3237   1.247       .  A
C3237      O3238   1.274       .  A
C3237      C3623   1.500       .  S
O3238     Cr3782   2.041       .  S
O3239     Cr3254   2.075       .  S
O3239      C3240   1.289       .  A
C3240      O3241   1.252       .  A
C3240      C3482   1.489       .  S
O3241     Cr3255   1.947       .  S
O3242     Cr3255   1.962       .  S
O3242      C3771   1.256   1_554  A
C3243      O3770   1.257       .  A
O3244     Cr3253   1.954       .  S
O3244      C3252   1.255       .  A
O3245     Cr3253   1.944       .  S
O3245      C3246   1.251       .  A
C3246      O3247   1.290       .  A
C3246      C3592   1.488       .  S
O3247     Cr3782   2.078       .  S
O3248     Cr3254   2.039       .  S
O3248      C3249   1.276       .  A
C3249      O3250   1.249       .  A
C3249      C3447   1.502       .  S
O3250     Cr3255   1.988       .  S
O3251     Cr3255   1.925       .  S
O3251      C3780   1.249       .  A
C3252      O3779   1.249       .  A
Cr3253     O3784   1.794       .  S
Cr3254     O3766   2.044   1_554  S
Cr3254     O3775   2.081   1_554  S
Cr3254     O3256   1.730       .  S
Cr3255     O3256   1.797       .  S
O3256     Cr3781   1.794   1_554  S
O3257     Cr3275   1.922       .  S
O3257      C3265   1.247       .  A
O3258     Cr3275   1.966       .  S
O3258      C3259   1.245       .  A
C3259      O3260   1.284       .  A
C3259      C3633   1.514       .  S
O3260     Cr3276   2.080       .  S
O3261      C3262   1.295       .  A
C3262      O3263   1.253       .  A
C3262      C3614   1.507       .  S
O3263     Cr3277   1.948       .  S
O3264     Cr3277   1.952       .  S
C3265      C3318   1.393       .  S
O3266     Cr3275   1.951       .  S
O3266      C3274   1.254       .  A
O3267     Cr3275   1.943       .  S
O3267      C3268   1.252       .  A
C3268      O3269   1.294       .  A
C3268      C3570   1.496       .  S
O3269     Cr3276   2.093       .  S
O3270      C3271   1.282       .  A
C3271      O3272   1.247       .  A
C3271      C3457   1.516       .  S
O3272     Cr3277   1.974       .  S
O3273     Cr3277   1.921       .  S
C3274      C3287   1.391       .  S
Cr3275     O3278   1.793       .  S
Cr3276     O3278   1.730       .  S
O3279     Cr3297   1.951       .  S
O3279      C3287   1.254       .  A
O3280     Cr3297   1.940       .  S
O3280      C3281   1.252       .  A
C3281      O3282   1.296       .  A
C3281      C3567   1.504       .  S
O3282     Cr3298   2.105       .  S
O3283      C3284   1.278       .  A
C3284      O3285   1.249       .  A
C3284      C3460   1.510       .  S
O3285     Cr3299   1.988       .  S
O3286     Cr3299   1.918       .  S
O3288     Cr3297   1.919       .  S
O3288      C3296   1.249       .  A
O3289     Cr3297   1.973       .  S
O3289      C3290   1.248       .  A
C3290      O3291   1.278       .  A
C3290      C3526   1.503       .  S
O3291     Cr3298   2.057       .  S
O3292      C3293   1.298       .  A
C3293      O3294   1.249       .  A
C3293      C3491   1.505       .  S
O3294     Cr3299   1.931       .  S
O3295     Cr3299   1.967       .  S
C3296      C3340   1.398       .  S
Cr3297     O3300   1.781       .  S
Cr3298     O3300   1.729       .  S
O3301     Cr3319   1.965       .  S
O3301      C3309   1.258       .  A
O3302     Cr3319   1.940       .  S
O3302      C3303   1.250       .  A
C3303      O3304   1.295       .  A
C3303      C3677   1.504       .  S
O3304     Cr3320   2.103       .  S
O3305      C3306   1.280       .  A
C3306      O3307   1.247       .  A
C3306      C3554   1.505       .  S
O3307     Cr3321   1.970       .  S
O3308     Cr3321   1.923       .  S
C3309      C3331   1.400       .  S
O3310     Cr3319   1.922       .  S
O3310      C3318   1.247       .  A
O3311     Cr3319   1.988       .  S
O3311      C3312   1.250       .  A
C3312      O3313   1.276       .  A
C3312      C3636   1.510       .  S
O3313     Cr3320   2.050       .  S
O3314      C3315   1.292       .  A
C3315      O3316   1.253       .  A
C3315      C3611   1.492       .  S
O3316     Cr3321   1.946       .  S
O3317     Cr3321   1.953       .  S
Cr3319     O3322   1.789       .  S
Cr3320     O3322   1.730       .  S
O3323     Cr3341   1.924       .  S
O3324     Cr3341   1.985       .  S
O3324      C3325   1.248       .  A
C3325      O3326   1.276       .  A
C3325      C3557   1.505       .  S
O3327     Cr3342   2.076       .  S
O3327      C3328   1.290       .  A
C3328      O3329   1.252       .  A
C3328      C3680   1.489       .  S
O3329     Cr3343   1.947       .  S
O3330     Cr3343   1.961       .  S
O3330      C3331   1.257       .  A
O3332     Cr3341   1.961       .  S
O3333     Cr3341   1.946       .  S
O3333      C3334   1.252       .  A
C3334      O3335   1.290       .  A
C3334      C3488   1.491       .  S
O3336     Cr3342   2.047       .  S
O3336      C3337   1.277       .  A
C3337      O3338   1.248       .  A
C3337      C3523   1.507       .  S
O3338     Cr3343   1.986       .  S
O3339     Cr3343   1.922       .  S
O3339      C3340   1.249       .  A
Cr3342     O3344   1.728       .  S
Cr3343     O3344   1.794       .  S
O3345     Cr3363   1.948       .  S
O3345      C3353   1.254       .  A
O3346     Cr3363   1.945       .  S
O3346      C3347   1.252       .  A
C3347      O3348   1.294       .  A
C3347      C3545   1.497       .  S
O3348     Cr3364   2.092       .  S
O3349      C3350   1.277       .  A
C3350      O3351   1.249       .  A
C3350      C3466   1.514       .  S
O3351     Cr3365   1.989       .  S
O3352     Cr3365   1.917       .  S
C3353      C3384   1.389       .  S
O3354     Cr3363   1.921       .  S
O3354      C3362   1.248       .  A
O3355     Cr3363   1.969       .  S
O3355      C3356   1.247       .  A
C3356      O3357   1.280       .  A
C3356      C3658   1.504       .  S
O3357     Cr3364   2.063       .  S
O3358      C3359   1.298       .  A
C3359      O3360   1.249       .  A
C3359      C3601   1.506       .  S
O3360     Cr3365   1.937       .  S
O3361     Cr3365   1.958       .  S
C3362      C3428   1.384       .  S
Cr3363     O3366   1.793       .  S
Cr3364     O3366   1.728       .  S
O3367     Cr3385   1.926       .  S
O3367      C3375   1.248       .  A
O3368     Cr3385   1.972       .  S
O3368      C3369   1.247       .  A
C3369      O3370   1.283       .  A
C3369      C3501   1.514       .  S
O3370     Cr3386   2.075       .  S
O3371      C3372   1.298       .  A
C3372      O3373   1.250       .  A
C3372      C3438   1.505       .  S
O3373     Cr3387   1.935       .  S
O3374     Cr3387   1.947       .  S
C3375      C3406   1.381       .  S
O3376     Cr3385   1.948       .  S
O3376      C3384   1.254       .  A
O3377     Cr3385   1.944       .  S
O3377      C3378   1.252       .  A
C3378      O3379   1.297       .  A
C3378      C3548   1.509       .  S
O3379     Cr3386   2.108       .  S
O3380      C3381   1.283       .  A
C3381      O3382   1.246       .  A
C3381      C3469   1.518       .  S
O3382     Cr3387   1.972       .  S
O3383     Cr3387   1.919       .  S
Cr3385     O3388   1.790       .  S
Cr3386     O3388   1.732       .  S
O3389     Cr3407   1.923       .  S
O3389      C3397   1.249       .  A
O3390     Cr3407   1.966       .  S
O3390      C3391   1.245       .  A
C3391      O3392   1.276       .  A
C3391      C3689   1.499       .  S
O3392     Cr3408   2.056       .  S
O3393      C3394   1.292       .  A
C3394      O3395   1.252       .  A
C3394      C3576   1.497       .  S
O3395     Cr3409   1.949       .  S
O3396     Cr3409   1.963       .  S
C3397      C3419   1.399       .  S
O3398     Cr3407   1.943       .  S
O3398      C3406   1.250       .  A
O3399     Cr3407   1.950       .  S
O3399      C3400   1.253       .  A
C3400      O3401   1.293       .  A
C3400      C3504   1.496       .  S
O3401     Cr3408   2.086       .  S
O3402      C3403   1.276       .  A
C3403      O3404   1.249       .  A
C3403      C3435   1.504       .  S
O3404     Cr3409   1.985       .  S
O3405     Cr3409   1.928       .  S
Cr3407     O3410   1.793       .  S
Cr3408     O3410   1.731       .  S
O3411     Cr3429   1.961       .  S
O3412     Cr3429   1.939       .  S
O3412      C3413   1.250       .  A
C3413      O3414   1.293       .  A
C3413      C3579   1.498       .  S
O3415     Cr3430   2.035       .  S
O3415      C3416   1.273       .  A
C3416      O3417   1.248       .  A
C3416      C3686   1.496       .  S
O3417     Cr3431   1.982       .  S
O3418     Cr3431   1.925       .  S
O3418      C3419   1.249       .  A
O3420     Cr3429   1.923       .  S
O3421     Cr3429   1.990       .  S
O3421      C3422   1.251       .  A
C3422      O3423   1.271       .  A
C3422      C3598   1.493       .  S
O3424     Cr3430   2.093       .  S
O3424      C3425   1.295       .  A
C3425      O3426   1.250       .  A
C3425      C3655   1.496       .  S
O3426     Cr3431   1.940       .  S
O3427     Cr3431   1.956       .  S
O3427      C3428   1.256       .  A
Cr3430     O3432   1.730       .  S
Cr3431     O3432   1.791       .  S
O3433     Cr3451   1.958       .  S
O3433      C3441   1.257       .  A
O3434     Cr3451   1.938       .  S
O3434      C3435   1.251       .  A
C3435      O3436   1.296       .  A
O3436     Cr3452   2.106       .  S
O3437     Cr3452   2.044       .  S
O3437      C3438   1.276       .  A
C3438      O3439   1.249       .  A
O3439     Cr3453   1.988       .  S
O3440     Cr3453   1.917       .  S
O3440      C3441   1.248       .  A
O3442     Cr3451   1.919       .  S
O3442      C3450   1.248       .  A
O3443     Cr3451   1.987       .  S
O3443      C3444   1.249       .  A
C3444      O3445   1.276       .  A
O3445     Cr3452   2.042       .  S
O3446     Cr3452   2.106       .  S
O3446      C3447   1.296       .  A
C3447      O3448   1.249       .  A
O3448     Cr3453   1.932       .  S
O3449     Cr3453   1.961       .  S
O3449      C3450   1.257       .  A
C3450      C4123   1.395   1_554  S
Cr3451     O3454   1.786       .  S
Cr3452     O3454   1.726       .  S
Cr3453     O3454   1.788       .  S
O3455     Cr3473   1.924       .  S
O3455      C3463   1.247       .  A
O3456     Cr3473   1.975       .  S
O3456      C3457   1.248       .  A
C3457      O3458   1.283       .  A
O3458     Cr3474   2.076       .  S
O3459     Cr3474   2.115       .  S
O3459      C3460   1.299       .  A
C3460      O3461   1.251       .  A
O3461     Cr3475   1.940       .  S
O3462     Cr3475   1.949       .  S
O3462      C3463   1.253       .  A
O3464     Cr3473   1.949       .  S
O3464      C3472   1.254       .  A
O3465     Cr3473   1.949       .  S
O3465      C3466   1.253       .  A
C3466      O3467   1.298       .  A
O3467     Cr3474   2.113       .  S
O3468     Cr3474   2.079       .  S
O3468      C3469   1.283       .  A
C3469      O3470   1.247       .  A
O3470     Cr3475   1.974       .  S
O3471     Cr3475   1.917       .  S
O3471      C3472   1.246       .  A
Cr3473     O3476   1.792       .  S
Cr3474     O3476   1.730       .  S
Cr3475     O3476   1.790       .  S
O3477     Cr3495   1.924       .  S
O3477      C3485   1.249       .  A
O3478     Cr3495   1.982       .  S
O3478      C3479   1.247       .  A
C3479      O3480   1.276       .  A
O3480     Cr3496   2.044       .  S
O3481     Cr3496   2.077       .  S
O3481      C3482   1.290       .  A
C3482      O3483   1.252       .  A
O3483     Cr3497   1.943       .  S
O3484     Cr3497   1.964       .  S
O3484      C3485   1.257       .  A
C3485      C4154   1.400   1_554  S
O3486     Cr3495   1.958       .  S
O3486      C3494   1.256       .  A
O3487     Cr3495   1.947       .  S
O3487      C3488   1.252       .  A
C3488      O3489   1.290       .  A
O3489     Cr3496   2.079       .  S
O3490     Cr3496   2.044       .  S
O3490      C3491   1.276       .  A
C3491      O3492   1.248       .  A
O3492     Cr3497   1.985       .  S
O3493     Cr3497   1.922       .  S
O3493      C3494   1.248       .  A
Cr3495     O3498   1.792       .  S
Cr3496     O3498   1.728       .  S
Cr3497     O3498   1.794       .  S
O3499     Cr3517   1.920       .  S
O3499      C3507   1.247       .  A
O3500     Cr3517   1.974       .  S
O3500      C3501   1.247       .  A
C3501      O3502   1.281       .  A
O3502     Cr3518   2.071       .  S
O3503     Cr3518   2.090       .  S
O3503      C3504   1.294       .  A
C3504      O3505   1.252       .  A
O3505     Cr3519   1.944       .  S
O3506     Cr3519   1.954       .  S
O3506      C3507   1.254       .  A
O3508     Cr3517   1.952       .  S
O3508      C3516   1.255       .  A
O3509     Cr3517   1.949       .  S
O3509      C3510   1.254       .  A
C3510      O3511   1.294       .  A
O3511     Cr3518   2.099       .  S
O3512     Cr3518   2.080       .  S
O3512      C3513   1.284       .  A
C3513      O3514   1.246       .  A
O3514     Cr3519   1.968       .  S
O3515     Cr3519   1.923       .  S
O3515      C3516   1.248       .  A
C3516      C4198   1.394   1_554  S
Cr3517     O3520   1.787       .  S
Cr3518     O3520   1.731       .  S
Cr3519     O3520   1.796       .  S
O3521     Cr3539   1.964       .  S
O3521      C3529   1.258       .  A
O3522     Cr3539   1.934       .  S
O3522      C3523   1.249       .  A
C3523      O3524   1.298       .  A
O3524     Cr3540   2.114       .  S
O3525     Cr3540   2.056       .  S
O3525      C3526   1.278       .  A
C3526      O3527   1.248       .  A
O3527     Cr3541   1.974       .  S
O3528     Cr3541   1.920       .  S
O3528      C3529   1.249       .  A
O3530     Cr3539   1.919       .  S
O3530      C3538   1.247       .  A
O3531     Cr3539   1.987       .  S
O3531      C3532   1.249       .  A
C3532      O3533   1.277       .  A
O3533     Cr3540   2.044       .  S
O3534     Cr3540   2.112       .  S
O3534      C3535   1.298       .  A
C3535      O3536   1.252       .  A
O3536     Cr3541   1.943       .  S
O3537     Cr3541   1.951       .  S
O3537      C3538   1.254       .  A
C3538      C4176   1.390   1_554  S
Cr3539     O3542   1.789       .  S
Cr3540     O3542   1.729       .  S
Cr3541     O3542   1.783       .  S
O3543     Cr3561   1.949       .  S
O3543      C3551   1.254       .  A
O3544     Cr3561   1.944       .  S
O3544      C3545   1.252       .  A
C3545      O3546   1.295       .  A
O3546     Cr3562   2.094       .  S
O3547     Cr3562   2.050       .  S
O3547      C3548   1.277       .  A
C3548      O3549   1.249       .  A
O3549     Cr3563   1.987       .  S
O3550     Cr3563   1.920       .  S
O3550      C3551   1.247       .  A
O3552     Cr3561   1.921       .  S
O3552      C3560   1.249       .  A
O3553     Cr3561   1.967       .  S
O3553      C3554   1.246       .  A
C3554      O3555   1.280       .  A
O3555     Cr3562   2.065       .  S
O3556     Cr3562   2.106       .  S
O3556      C3557   1.296       .  A
C3557      O3558   1.250       .  A
O3558     Cr3563   1.939       .  S
O3559     Cr3563   1.958       .  S
O3559      C3560   1.257       .  A
Cr3561     O3564   1.791       .  S
Cr3562     O3564   1.727       .  S
Cr3563     O3564   1.788       .  S
O3565     Cr3583   1.926       .  S
O3565      C3573   1.249       .  A
O3566     Cr3583   1.986       .  S
O3566      C3567   1.248       .  A
C3567      O3568   1.274       .  A
O3568     Cr3584   2.043       .  S
O3569     Cr3584   2.084       .  S
O3569      C3570   1.292       .  A
C3570      O3571   1.252       .  A
O3571     Cr3585   1.950       .  S
O3572     Cr3585   1.945       .  S
O3572      C3573   1.253       .  A
O3574     Cr3583   1.952       .  S
O3574      C3582   1.254       .  A
O3575     Cr3583   1.947       .  S
O3575      C3576   1.252       .  A
C3576      O3577   1.293       .  A
O3577     Cr3584   2.086       .  S
O3578     Cr3584   2.040       .  S
O3578      C3579   1.274       .  A
C3579      O3580   1.247       .  A
O3580     Cr3585   1.981       .  S
O3581     Cr3585   1.932       .  S
O3581      C3582   1.251       .  A
Cr3583     O3586   1.797       .  S
Cr3584     O3586   1.730       .  S
Cr3585     O3586   1.799       .  S
O3587     Cr3605   1.919       .  S
O3587      C3595   1.249       .  A
O3588     Cr3605   1.972       .  S
O3588      C3589   1.247       .  A
C3589      O3590   1.278       .  A
O3590     Cr3606   2.057       .  S
O3591     Cr3606   2.083       .  S
O3591      C3592   1.292       .  A
C3592      O3593   1.251       .  A
O3593     Cr3607   1.937       .  S
O3594     Cr3607   1.965       .  S
O3594      C3595   1.257       .  A
C3595      C3978   1.397       .  S
O3596     Cr3605   1.950       .  S
O3596      C3604   1.253       .  A
O3597     Cr3605   1.941       .  S
O3597      C3598   1.253       .  A
C3598      O3599   1.290       .  A
O3599     Cr3606   2.085       .  S
O3600     Cr3606   2.054       .  S
O3600      C3601   1.279       .  A
C3601      O3602   1.247       .  A
O3602     Cr3607   1.979       .  S
O3603     Cr3607   1.927       .  S
O3603      C3604   1.248       .  A
Cr3605     O3608   1.782       .  S
Cr3606     O3608   1.732       .  S
Cr3607     O3608   1.795       .  S
O3609     Cr3627   1.950       .  S
O3609      C3617   1.254       .  A
O3610     Cr3627   1.946       .  S
O3610      C3611   1.253       .  A
C3611      O3612   1.292       .  A
O3612     Cr3628   2.085       .  S
O3613     Cr3628   2.047       .  S
O3613      C3614   1.275       .  A
C3614      O3615   1.250       .  A
O3615     Cr3629   1.988       .  S
O3616     Cr3629   1.920       .  S
O3616      C3617   1.246       .  A
O3618     Cr3627   1.924       .  S
O3618      C3626   1.250       .  A
O3619     Cr3627   1.967       .  S
O3619      C3620   1.246       .  A
C3620      O3621   1.279       .  A
O3621     Cr3628   2.060       .  S
O3622     Cr3628   2.101       .  S
O3622      C3623   1.295       .  A
C3623      O3624   1.250       .  A
O3624     Cr3629   1.936       .  S
O3625     Cr3629   1.967       .  S
O3625      C3626   1.258       .  A
C3626      C4013   1.402       .  S
Cr3627     O3630   1.788       .  S
Cr3628     O3630   1.730       .  S
Cr3629     O3630   1.788       .  S
O3631     Cr3649   1.922       .  S
O3631      C3639   1.248       .  A
O3632     Cr3649   1.965       .  S
O3632      C3633   1.245       .  A
C3633      O3634   1.284       .  A
O3634     Cr3650   2.081       .  S
O3635     Cr3650   2.104       .  S
O3635      C3636   1.296       .  A
C3636      O3637   1.253       .  A
O3637     Cr3651   1.950       .  S
O3638     Cr3651   1.949       .  S
O3638      C3639   1.254       .  A
O3640     Cr3649   1.949       .  S
O3640      C3648   1.254       .  A
O3641     Cr3649   1.945       .  S
O3641      C3642   1.253       .  A
C3642      O3643   1.295       .  A
O3643     Cr3650   2.094       .  S
O3644     Cr3650   2.073       .  S
O3644      C3645   1.282       .  A
C3645      O3646   1.247       .  A
O3646     Cr3651   1.972       .  S
O3647     Cr3651   1.921       .  S
O3647      C3648   1.247       .  A
C3648      C4066   1.390       .  S
Cr3649     O3652   1.794       .  S
Cr3650     O3652   1.728       .  S
Cr3651     O3652   1.789       .  S
O3653     Cr3671   1.965       .  S
O3653      C3661   1.259       .  A
O3654     Cr3671   1.945       .  S
O3654      C3655   1.251       .  A
C3655      O3656   1.293       .  A
O3656     Cr3672   2.088       .  S
O3657     Cr3672   2.059       .  S
O3657      C3658   1.278       .  A
C3658      O3659   1.247       .  A
O3659     Cr3673   1.970       .  S
O3660     Cr3673   1.919       .  S
O3660      C3661   1.247       .  A
O3662     Cr3671   1.922       .  S
O3662      C3670   1.246       .  A
O3663     Cr3671   1.984       .  S
O3663      C3664   1.249       .  A
C3664      O3665   1.277       .  A
O3665     Cr3672   2.050       .  S
O3666     Cr3672   2.083       .  S
O3666      C3667   1.292       .  A
C3667      O3668   1.254       .  A
O3668     Cr3673   1.950       .  S
O3669     Cr3673   1.953       .  S
O3669      C3670   1.254       .  A
C3670      C4044   1.394       .  S
Cr3671     O3674   1.796       .  S
Cr3672     O3674   1.727       .  S
Cr3673     O3674   1.791       .  S
O3675     Cr3693   1.922       .  S
O3675      C3683   1.247       .  A
O3676     Cr3693   1.984       .  S
O3676      C3677   1.248       .  A
C3677      O3678   1.275       .  A
O3678     Cr3694   2.046       .  S
O3679     Cr3694   2.080       .  S
O3679      C3680   1.291       .  A
C3680      O3681   1.253       .  A
O3681     Cr3695   1.944       .  S
O3682     Cr3695   1.953       .  S
O3682      C3683   1.254       .  A
O3684     Cr3693   1.956       .  S
O3684      C3692   1.255       .  A
O3685     Cr3693   1.934       .  S
O3685      C3686   1.250       .  A
C3686      O3687   1.293       .  A
O3687     Cr3694   2.096       .  S
O3688     Cr3694   2.057       .  S
O3688      C3689   1.279       .  A
C3689      O3690   1.247       .  A
O3690     Cr3695   1.968       .  S
O3691     Cr3695   1.928       .  S
O3691      C3692   1.249       .  A
Cr3693     O3696   1.787       .  S
Cr3694     O3696   1.733       .  S
Cr3695     O3696   1.792       .  S
O3697     Cr3715   1.920       .  S
O3697      C3705   1.246       .  A
O3698     Cr3715   1.974       .  S
O3698      C3699   1.248       .  A
C3699      O3700   1.284       .  A
C3699      C4173   1.516       .  S
O3701     Cr3716   2.113       .  S
O3701      C3702   1.298       .  A
C3702      O3703   1.250       .  A
C3702      C4060   1.507       .  S
O3703     Cr3717   1.936       .  S
O3704     Cr3717   1.944       .  S
C3705      C3758   1.375   1_556  S
O3706     Cr3715   1.949       .  S
O3706      C3714   1.254   1_556  A
O3707     Cr3715   1.942       .  S
O3707      C3708   1.252       .  A
C3708      O3709   1.297       .  A
C3708      C4192   1.508       .  S
O3710     Cr3716   2.077       .  S
O3710      C3711   1.283       .  A
C3711      O3712   1.246       .  A
C3711      C4041   1.514       .  S
O3712     Cr3717   1.970       .  S
O3713     Cr3717   1.919       .  S
C3714      C3736   1.389       .  S
Cr3716     O3718   1.729       .  S
Cr3717     O3718   1.789       .  S
O3719     Cr3737   1.966       .  S
O3720     Cr3737   1.935       .  S
O3720      C3721   1.250       .  A
C3721      O3722   1.296       .  A
C3721      C4007   1.502       .  S
O3722     Cr3738   2.104       .  S
O3723      C3724   1.279       .  A
C3724      O3725   1.246       .  A
C3724      C4148   1.501       .  S
O3725     Cr3739   1.967       .  S
O3726     Cr3739   1.923       .  S
O3726      C3727   1.250       .  A
C3727      C3771   1.401       .  S
O3728     Cr3737   1.919       .  S
O3729     Cr3737   1.987       .  S
O3729      C3730   1.250       .  A
C3730      O3731   1.274       .  A
C3730      C4038   1.506       .  S
O3731     Cr3738   2.044       .  S
O3732      C3733   1.294       .  A
C3733      O3734   1.252       .  A
C3733      C4195   1.494       .  S
O3734     Cr3739   1.943       .  S
O3735     Cr3739   1.950       .  S
O3735      C3736   1.254   1_556  A
Cr3737     O3740   1.788       .  S
Cr3738     O3740   1.729       .  S
O3741     Cr3759   1.926       .  S
O3741      C3749   1.249       .  A
O3742     Cr3759   1.969       .  S
O3742      C3743   1.246       .  A
C3743      O3744   1.279       .  A
C3743      C4117   1.504       .  S
O3745     Cr3760   2.103       .  S
O3745      C3746   1.295       .  A
C3746      O3747   1.250       .  A
C3746      C3972   1.503       .  S
O3747     Cr3761   1.936       .  S
O3748     Cr3761   1.955       .  S
C3749      C3780   1.386   1_556  S
O3750     Cr3759   1.943       .  S
O3750      C3758   1.251   1_556  A
O3751     Cr3759   1.947       .  S
O3751      C3752   1.252       .  A
C3752      O3753   1.294       .  A
C3752      C4170   1.498       .  S
O3754     Cr3760   2.049       .  S
O3754      C3755   1.276       .  A
C3755      O3756   1.249       .  A
C3755      C4063   1.509       .  S
O3756     Cr3761   1.990       .  S
O3757     Cr3761   1.921       .  S
Cr3760     O3762   1.731       .  S
Cr3761     O3762   1.793       .  S
O3763     Cr3781   1.924       .  S
O3763      C3771   1.249       .  A
O3764     Cr3781   1.983       .  S
O3764      C3765   1.248       .  A
C3765      O3766   1.275       .  A
C3765      C4151   1.503       .  S
O3767     Cr3782   2.076       .  S
O3767      C3768   1.289       .  A
C3768      O3769   1.252       .  A
C3768      C4010   1.489       .  S
O3769     Cr3783   1.945       .  S
O3770     Cr3783   1.964       .  S
O3772     Cr3781   1.955       .  S
O3772      C3780   1.255   1_556  A
O3773     Cr3781   1.945       .  S
O3773      C3774   1.251       .  A
C3774      O3775   1.291       .  A
C3774      C4120   1.492       .  S
O3776     Cr3782   2.042       .  S
O3776      C3777   1.276       .  A
C3777      O3778   1.250       .  A
C3777      C3975   1.504       .  S
O3778     Cr3783   1.989       .  S
O3779     Cr3783   1.925       .  S
Cr3782     O3784   1.730       .  S
Cr3783     O3784   1.796       .  S
O3785     Cr3803   1.924       .  S
O3785      C3793   1.248       .  A
O3786     Cr3803   1.966       .  S
O3786      C3787   1.245       .  A
C3787      O3788   1.284       .  A
C3787      C4161   1.515       .  S
O3788     Cr3804   2.081       .  S
O3789      C3790   1.294       .  A
C3790      O3791   1.253       .  A
C3790      C4142   1.505       .  S
O3791     Cr3805   1.945       .  S
O3792     Cr3805   1.953       .  S
C3793      C3846   1.394       .  S
O3794     Cr3803   1.951       .  S
O3794      C3802   1.254       .  A
O3795     Cr3803   1.946       .  S
O3795      C3796   1.253       .  A
C3796      O3797   1.295       .  A
C3796      C4098   1.498       .  S
O3797     Cr3804   2.093       .  S
O3798      C3799   1.281       .  A
C3799      O3800   1.247       .  A
C3799      C3985   1.513       .  S
O3800     Cr3805   1.973       .  S
O3801     Cr3805   1.921       .  S
C3802      C3815   1.391       .  S
Cr3803     O3806   1.794       .  S
Cr3804     O3806   1.730       .  S
O3807     Cr3825   1.952       .  S
O3807      C3815   1.254       .  A
O3808     Cr3825   1.940       .  S
O3808      C3809   1.252       .  A
C3809      O3810   1.296       .  A
C3809      C4095   1.504       .  S
O3810     Cr3826   2.105       .  S
O3811      C3812   1.277       .  A
C3812      O3813   1.250       .  A
C3812      C3988   1.506       .  S
O3813     Cr3827   1.987       .  S
O3814     Cr3827   1.919       .  S
O3816     Cr3825   1.920       .  S
O3816      C3824   1.249       .  A
O3817     Cr3825   1.973       .  S
O3817      C3818   1.248       .  A
C3818      O3819   1.278       .  A
C3818      C4054   1.503       .  S
O3819     Cr3826   2.057       .  S
O3820      C3821   1.297       .  A
C3821      O3822   1.249       .  A
C3821      C4019   1.502       .  S
O3822     Cr3827   1.929       .  S
O3823     Cr3827   1.966       .  S
C3824      C3868   1.399       .  S
Cr3825     O3828   1.783       .  S
Cr3826     O3828   1.729       .  S
O3829     Cr3847   1.966       .  S
O3829      C3837   1.258       .  A
O3830     Cr3847   1.942       .  S
O3830      C3831   1.251       .  A
C3831      O3832   1.296       .  A
C3831      C4205   1.506       .  S
O3832     Cr3848   2.105       .  S
O3833      C3834   1.281       .  A
C3834      O3835   1.246       .  A
C3834      C4082   1.507       .  S
O3835     Cr3849   1.969       .  S
O3836     Cr3849   1.923       .  S
C3837      C3859   1.401       .  S
O3838     Cr3847   1.923       .  S
O3838      C3846   1.247       .  A
O3839     Cr3847   1.988       .  S
O3839      C3840   1.250       .  A
C3840      O3841   1.276       .  A
C3840      C4164   1.511       .  S
O3841     Cr3848   2.051       .  S
O3842      C3843   1.292       .  A
C3843      O3844   1.253       .  A
C3843      C4139   1.494       .  S
O3844     Cr3849   1.948       .  S
O3845     Cr3849   1.952       .  S
Cr3847     O3850   1.790       .  S
Cr3848     O3850   1.730       .  S
O3851     Cr3869   1.924       .  S
O3852     Cr3869   1.983       .  S
O3852      C3853   1.248       .  A
C3853      O3854   1.277       .  A
C3853      C4085   1.507       .  S
O3855     Cr3870   2.075       .  S
O3855      C3856   1.290       .  A
C3856      O3857   1.253       .  A
C3856      C4208   1.489       .  S
O3857     Cr3871   1.947       .  S
O3858     Cr3871   1.962       .  S
O3858      C3859   1.257       .  A
O3860     Cr3869   1.959       .  S
O3861     Cr3869   1.948       .  S
O3861      C3862   1.253       .  A
C3862      O3863   1.290       .  A
C3862      C4016   1.492       .  S
O3864     Cr3870   2.047       .  S
O3864      C3865   1.277       .  A
C3865      O3866   1.248       .  A
C3865      C4051   1.507       .  S
O3866     Cr3871   1.986       .  S
O3867     Cr3871   1.923       .  S
O3867      C3868   1.249       .  A
Cr3870     O3872   1.729       .  S
Cr3871     O3872   1.794       .  S
O3873     Cr3891   1.947       .  S
O3873      C3881   1.254       .  A
O3874     Cr3891   1.946       .  S
O3874      C3875   1.252       .  A
C3875      O3876   1.294       .  A
C3875      C4073   1.497       .  S
O3876     Cr3892   2.092       .  S
O3877      C3878   1.276       .  A
C3878      O3879   1.249       .  A
C3878      C3994   1.509       .  S
O3879     Cr3893   1.988       .  S
O3880     Cr3893   1.918       .  S
C3881      C3912   1.389       .  S
O3882     Cr3891   1.922       .  S
O3882      C3890   1.248       .  A
O3883     Cr3891   1.968       .  S
O3883      C3884   1.247       .  A
C3884      O3885   1.279       .  A
C3884      C4186   1.502       .  S
O3885     Cr3892   2.061       .  S
O3886      C3887   1.297       .  A
C3887      O3888   1.249       .  A
C3887      C4129   1.505       .  S
O3888     Cr3893   1.936       .  S
O3889     Cr3893   1.958       .  S
C3890      C3956   1.385       .  S
Cr3891     O3894   1.793       .  S
Cr3892     O3894   1.728       .  S
O3895     Cr3913   1.926       .  S
O3895      C3903   1.248       .  A
O3896     Cr3913   1.972       .  S
O3896      C3897   1.247       .  A
C3897      O3898   1.283       .  A
C3897      C4029   1.513       .  S
O3898     Cr3914   2.074       .  S
O3899      C3900   1.298       .  A
C3900      O3901   1.250       .  A
C3900      C3966   1.506       .  S
O3901     Cr3915   1.934       .  S
O3902     Cr3915   1.945       .  S
C3903      C3934   1.379       .  S
O3904     Cr3913   1.948       .  S
O3904      C3912   1.254       .  A
O3905     Cr3913   1.945       .  S
O3905      C3906   1.252       .  A
C3906      O3907   1.297       .  A
C3906      C4076   1.510       .  S
O3907     Cr3914   2.109       .  S
O3908      C3909   1.282       .  A
C3909      O3910   1.246       .  A
C3909      C3997   1.514       .  S
O3910     Cr3915   1.971       .  S
O3911     Cr3915   1.919       .  S
Cr3913     O3916   1.790       .  S
Cr3914     O3916   1.731       .  S
O3917     Cr3935   1.925       .  S
O3917      C3925   1.250       .  A
O3918     Cr3935   1.965       .  S
O3918      C3919   1.244       .  A
C3919      O3920   1.276       .  A
C3919      C4217   1.499       .  S
O3920     Cr3936   2.056       .  S
O3921      C3922   1.293       .  A
C3922      O3923   1.252       .  A
C3922      C4104   1.498       .  S
O3923     Cr3937   1.949       .  S
O3924     Cr3937   1.963       .  S
C3925      C3947   1.400       .  S
O3926     Cr3935   1.941       .  S
O3926      C3934   1.250       .  A
O3927     Cr3935   1.951       .  S
O3927      C3928   1.253       .  A
C3928      O3929   1.293       .  A
C3928      C4032   1.497       .  S
O3929     Cr3936   2.087       .  S
O3930      C3931   1.277       .  A
C3931      O3932   1.249       .  A
C3931      C3963   1.505       .  S
O3932     Cr3937   1.986       .  S
O3933     Cr3937   1.928       .  S
Cr3935     O3938   1.793       .  S
Cr3936     O3938   1.731       .  S
O3939     Cr3957   1.960       .  S
O3940     Cr3957   1.941       .  S
O3940      C3941   1.250       .  A
C3941      O3942   1.294       .  A
C3941      C4107   1.502       .  S
O3943     Cr3958   2.036       .  S
O3943      C3944   1.273       .  A
C3944      O3945   1.248       .  A
C3944      C4214   1.497       .  S
O3945     Cr3959   1.982       .  S
O3946     Cr3959   1.925       .  S
O3946      C3947   1.249       .  A
O3948     Cr3957   1.924       .  S
O3949     Cr3957   1.990       .  S
O3949      C3950   1.251       .  A
C3950      O3951   1.271       .  A
C3950      C4126   1.495       .  S
O3952     Cr3958   2.095       .  S
O3952      C3953   1.295       .  A
C3953      O3954   1.250       .  A
C3953      C4183   1.498       .  S
O3954     Cr3959   1.942       .  S
O3955     Cr3959   1.956       .  S
O3955      C3956   1.255       .  A
Cr3958     O3960   1.730       .  S
Cr3959     O3960   1.791       .  S
O3961     Cr3979   1.961       .  S
O3961      C3969   1.257       .  A
O3962     Cr3979   1.937       .  S
O3962      C3963   1.250       .  A
C3963      O3964   1.297       .  A
O3964     Cr3980   2.108       .  S
O3965     Cr3980   2.043       .  S
O3965      C3966   1.276       .  A
C3966      O3967   1.250       .  A
O3967     Cr3981   1.991       .  S
O3968     Cr3981   1.918       .  S
O3968      C3969   1.248       .  A
O3970     Cr3979   1.919       .  S
O3970      C3978   1.248       .  A
O3971     Cr3979   1.988       .  S
O3971      C3972   1.250       .  A
C3972      O3973   1.276       .  A
O3973     Cr3980   2.041       .  S
O3974     Cr3980   2.107       .  S
O3974      C3975   1.297       .  A
C3975      O3976   1.250       .  A
O3976     Cr3981   1.936       .  S
O3977     Cr3981   1.964       .  S
O3977      C3978   1.257       .  A
Cr3979     O3982   1.787       .  S
Cr3980     O3982   1.726       .  S
Cr3981     O3982   1.787       .  S
O3983     Cr4001   1.924       .  S
O3983      C3991   1.248       .  A
O3984     Cr4001   1.974       .  S
O3984      C3985   1.248       .  A
C3985      O3986   1.283       .  A
O3986     Cr4002   2.073       .  S
O3987     Cr4002   2.112       .  S
O3987      C3988   1.298       .  A
C3988      O3989   1.250       .  A
O3989     Cr4003   1.935       .  S
O3990     Cr4003   1.949       .  S
O3990      C3991   1.253       .  A
O3992     Cr4001   1.950       .  S
O3992      C4000   1.254       .  A
O3993     Cr4001   1.944       .  S
O3993      C3994   1.252       .  A
C3994      O3995   1.297       .  A
O3995     Cr4002   2.109       .  S
O3996     Cr4002   2.075       .  S
O3996      C3997   1.282       .  A
C3997      O3998   1.247       .  A
O3998     Cr4003   1.972       .  S
O3999     Cr4003   1.919       .  S
O3999      C4000   1.247       .  A
Cr4001     O4004   1.790       .  S
Cr4002     O4004   1.732       .  S
Cr4003     O4004   1.788       .  S
O4005     Cr4023   1.924       .  S
O4005      C4013   1.249       .  A
O4006     Cr4023   1.983       .  S
O4006      C4007   1.248       .  A
C4007      O4008   1.275       .  A
O4008     Cr4024   2.042       .  S
O4009     Cr4024   2.077       .  S
O4009      C4010   1.290       .  A
C4010      O4011   1.252       .  A
O4011     Cr4025   1.946       .  S
O4012     Cr4025   1.965       .  S
O4012      C4013   1.257       .  A
O4014     Cr4023   1.960       .  S
O4014      C4022   1.256       .  A
O4015     Cr4023   1.946       .  S
O4015      C4016   1.252       .  A
C4016      O4017   1.290       .  A
O4017     Cr4024   2.081       .  S
O4018     Cr4024   2.040       .  S
O4018      C4019   1.276       .  A
C4019      O4020   1.248       .  A
O4020     Cr4025   1.986       .  S
O4021     Cr4025   1.921       .  S
O4021      C4022   1.248       .  A
Cr4023     O4026   1.793       .  S
Cr4024     O4026   1.728       .  S
Cr4025     O4026   1.793       .  S
O4027     Cr4045   1.920       .  S
O4027      C4035   1.247       .  A
O4028     Cr4045   1.974       .  S
O4028      C4029   1.247       .  A
C4029      O4030   1.281       .  A
O4030     Cr4046   2.070       .  S
O4031     Cr4046   2.092       .  S
O4031      C4032   1.294       .  A
C4032      O4033   1.252       .  A
O4033     Cr4047   1.944       .  S
O4034     Cr4047   1.954       .  S
O4034      C4035   1.254       .  A
O4036     Cr4045   1.952       .  S
O4036      C4044   1.254       .  A
O4037     Cr4045   1.948       .  S
O4037      C4038   1.254       .  A
C4038      O4039   1.295       .  A
O4039     Cr4046   2.100       .  S
O4040     Cr4046   2.080       .  S
O4040      C4041   1.284       .  A
C4041      O4042   1.245       .  A
O4042     Cr4047   1.967       .  S
O4043     Cr4047   1.923       .  S
O4043      C4044   1.248       .  A
Cr4045     O4048   1.787       .  S
Cr4046     O4048   1.731       .  S
Cr4047     O4048   1.795       .  S
O4049     Cr4067   1.966       .  S
O4049      C4057   1.258       .  A
O4050     Cr4067   1.933       .  S
O4050      C4051   1.249       .  A
C4051      O4052   1.299       .  A
O4052     Cr4068   2.115       .  S
O4053     Cr4068   2.057       .  S
O4053      C4054   1.278       .  A
C4054      O4055   1.248       .  A
O4055     Cr4069   1.974       .  S
O4056     Cr4069   1.919       .  S
O4056      C4057   1.248       .  A
O4058     Cr4067   1.919       .  S
O4058      C4066   1.246       .  A
O4059     Cr4067   1.988       .  S
O4059      C4060   1.249       .  A
C4060      O4061   1.277       .  A
O4061     Cr4068   2.046       .  S
O4062     Cr4068   2.111       .  S
O4062      C4063   1.297       .  A
C4063      O4064   1.252       .  A
O4064     Cr4069   1.943       .  S
O4065     Cr4069   1.951       .  S
O4065      C4066   1.255       .  A
Cr4067     O4070   1.789       .  S
Cr4068     O4070   1.728       .  S
Cr4069     O4070   1.783       .  S
O4071     Cr4089   1.949       .  S
O4071      C4079   1.254       .  A
O4072     Cr4089   1.944       .  S
O4072      C4073   1.252       .  A
C4073      O4074   1.295       .  A
O4074     Cr4090   2.094       .  S
O4075     Cr4090   2.053       .  S
O4075      C4076   1.277       .  A
C4076      O4077   1.249       .  A
O4077     Cr4091   1.986       .  S
O4078     Cr4091   1.920       .  S
O4078      C4079   1.247       .  A
O4080     Cr4089   1.919       .  S
O4080      C4088   1.248       .  A
O4081     Cr4089   1.968       .  S
O4081      C4082   1.246       .  A
C4082      O4083   1.281       .  A
O4083     Cr4090   2.068       .  S
O4084     Cr4090   2.107       .  S
O4084      C4085   1.297       .  A
C4085      O4086   1.250       .  A
O4086     Cr4091   1.940       .  S
O4087     Cr4091   1.959       .  S
O4087      C4088   1.257       .  A
Cr4089     O4092   1.791       .  S
Cr4090     O4092   1.726       .  S
Cr4091     O4092   1.789       .  S
O4093     Cr4111   1.927       .  S
O4093      C4101   1.249       .  A
O4094     Cr4111   1.986       .  S
O4094      C4095   1.248       .  A
C4095      O4096   1.274       .  A
O4096     Cr4112   2.042       .  S
O4097     Cr4112   2.085       .  S
O4097      C4098   1.292       .  A
C4098      O4099   1.252       .  A
O4099     Cr4113   1.951       .  S
O4100     Cr4113   1.945       .  S
O4100      C4101   1.253       .  A
O4102     Cr4111   1.951       .  S
O4102      C4110   1.254       .  A
O4103     Cr4111   1.949       .  S
O4103      C4104   1.252       .  A
C4104      O4105   1.293       .  A
O4105     Cr4112   2.087       .  S
O4106     Cr4112   2.042       .  S
O4106      C4107   1.275       .  A
C4107      O4108   1.248       .  A
O4108     Cr4113   1.983       .  S
O4109     Cr4113   1.930       .  S
O4109      C4110   1.251       .  A
Cr4111     O4114   1.798       .  S
Cr4112     O4114   1.730       .  S
Cr4113     O4114   1.799       .  S
O4115     Cr4133   1.917       .  S
O4115      C4123   1.248       .  A
O4116     Cr4133   1.973       .  S
O4116      C4117   1.247       .  A
C4117      O4118   1.278       .  A
O4118     Cr4134   2.058       .  S
O4119     Cr4134   2.085       .  S
O4119      C4120   1.292       .  A
C4120      O4121   1.251       .  A
O4121     Cr4135   1.941       .  S
O4122     Cr4135   1.962       .  S
O4122      C4123   1.257       .  A
O4124     Cr4133   1.953       .  S
O4124      C4132   1.253       .  A
O4125     Cr4133   1.942       .  S
O4125      C4126   1.253       .  A
C4126      O4127   1.291       .  A
O4127     Cr4134   2.087       .  S
O4128     Cr4134   2.053       .  S
O4128      C4129   1.278       .  A
C4129      O4130   1.247       .  A
O4130     Cr4135   1.978       .  S
O4131     Cr4135   1.928       .  S
O4131      C4132   1.249       .  A
Cr4133     O4136   1.783       .  S
Cr4134     O4136   1.731       .  S
Cr4135     O4136   1.795       .  S
O4137     Cr4155   1.953       .  S
O4137      C4145   1.254       .  A
O4138     Cr4155   1.947       .  S
O4138      C4139   1.253       .  A
C4139      O4140   1.293       .  A
O4140     Cr4156   2.087       .  S
O4141     Cr4156   2.044       .  S
O4141      C4142   1.275       .  A
C4142      O4143   1.250       .  A
O4143     Cr4157   1.988       .  S
O4144     Cr4157   1.921       .  S
O4144      C4145   1.247       .  A
O4146     Cr4155   1.923       .  S
O4146      C4154   1.249       .  A
O4147     Cr4155   1.969       .  S
O4147      C4148   1.247       .  A
C4148      O4149   1.279       .  A
O4149     Cr4156   2.058       .  S
O4150     Cr4156   2.102       .  S
O4150      C4151   1.295       .  A
C4151      O4152   1.251       .  A
O4152     Cr4157   1.940       .  S
O4153     Cr4157   1.964       .  S
O4153      C4154   1.258       .  A
Cr4155     O4158   1.790       .  S
Cr4156     O4158   1.730       .  S
Cr4157     O4158   1.788       .  S
O4159     Cr4177   1.922       .  S
O4159      C4167   1.248       .  A
O4160     Cr4177   1.965       .  S
O4160      C4161   1.245       .  A
C4161      O4162   1.285       .  A
O4162     Cr4178   2.082       .  S
O4163     Cr4178   2.106       .  S
O4163      C4164   1.296       .  A
C4164      O4165   1.253       .  A
O4165     Cr4179   1.950       .  S
O4166     Cr4179   1.950       .  S
O4166      C4167   1.254       .  A
O4168     Cr4177   1.950       .  S
O4168      C4176   1.254       .  A
O4169     Cr4177   1.946       .  S
O4169      C4170   1.253       .  A
C4170      O4171   1.295       .  A
O4171     Cr4178   2.095       .  S
O4172     Cr4178   2.075       .  S
O4172      C4173   1.282       .  A
C4173      O4174   1.247       .  A
O4174     Cr4179   1.972       .  S
O4175     Cr4179   1.920       .  S
O4175      C4176   1.247       .  A
Cr4177     O4180   1.795       .  S
Cr4178     O4180   1.728       .  S
Cr4179     O4180   1.789       .  S
O4181     Cr4199   1.966       .  S
O4181      C4189   1.259       .  A
O4182     Cr4199   1.947       .  S
O4182      C4183   1.251       .  A
C4183      O4184   1.294       .  A
O4184     Cr4200   2.090       .  S
O4185     Cr4200   2.057       .  S
O4185      C4186   1.278       .  A
C4186      O4187   1.247       .  A
O4187     Cr4201   1.970       .  S
O4188     Cr4201   1.920       .  S
O4188      C4189   1.248       .  A
O4190     Cr4199   1.923       .  S
O4190      C4198   1.246       .  A
O4191     Cr4199   1.984       .  S
O4191      C4192   1.249       .  A
C4192      O4193   1.277       .  A
O4193     Cr4200   2.050       .  S
O4194     Cr4200   2.085       .  S
O4194      C4195   1.292       .  A
C4195      O4196   1.253       .  A
O4196     Cr4201   1.950       .  S
O4197     Cr4201   1.952       .  S
O4197      C4198   1.254       .  A
Cr4199     O4202   1.796       .  S
Cr4200     O4202   1.728       .  S
Cr4201     O4202   1.791       .  S
O4203     Cr4221   1.923       .  S
O4203      C4211   1.247       .  A
O4204     Cr4221   1.985       .  S
O4204      C4205   1.248       .  A
C4205      O4206   1.276       .  A
O4206     Cr4222   2.047       .  S
O4207     Cr4222   2.079       .  S
O4207      C4208   1.290       .  A
C4208      O4209   1.253       .  A
O4209     Cr4223   1.945       .  S
O4210     Cr4223   1.953       .  S
O4210      C4211   1.255       .  A
O4212     Cr4221   1.957       .  S
O4212      C4220   1.255       .  A
O4213     Cr4221   1.935       .  S
O4213      C4214   1.250       .  A
C4214      O4215   1.293       .  A
O4215     Cr4222   2.097       .  S
O4216     Cr4222   2.057       .  S
O4216      C4217   1.279       .  A
C4217      O4218   1.247       .  A
O4218     Cr4223   1.968       .  S
O4219     Cr4223   1.927       .  S
O4219      C4220   1.249       .  A
Cr4221     O4224   1.788       .  S
Cr4222     O4224   1.733       .  S
Cr4223     O4224   1.792       .  S
