geometry optimzed in LAMMPS
_audit_creation_date              2020-12-01 
_audit_creation_method            'lammps2cif' 
_symmetry_space_group_name_H-M    'P1' 
_symmetry_Int_Tables_number       1 
_symmetry_cell_setting            triclinic 
loop_ 
_symmetry_equiv_pos_as_xyz 
  x,y,z 
_cell_length_a                    41.73228337 
_cell_length_b                    39.040730129481766 
_cell_length_c                    68.0838283662494 
_cell_angle_alpha                 90.10178218127695 
_cell_angle_beta                  89.93576570494754 
_cell_angle_gamma                 89.96477170670819 
loop_ 
_atom_site_label 
_atom_site_type_symbol 
_atom_site_fract_x 
_atom_site_fract_y 
_atom_site_fract_z 
_atom_site_charge 
N1          N  0.44291316  0.50114746  0.49952433    -0.36900
N2          N  0.99343696  0.01648156  0.52842133    -0.57400
N3          N  0.03899594  0.00098383  0.49752164    -0.36900
N4          N  0.98874509  0.48460825  0.46925246    -0.57400
C5          C  0.42503819  0.00753357  0.51582140     0.26700
C6          C  0.42292231  0.48814542  0.48563689     0.26700
C7          C  0.05440055  0.02261169  0.50978254     0.26700
C8          C  0.05135880  0.50704194  0.47942885     0.26700
C9          C  0.46810682  0.02983870  0.53815465     0.35300
C10         C  0.02022339  0.02718240  0.53785786     0.35300
C11         C  0.46277802  0.47420997  0.45931103     0.35300
C12         C  0.01436755  0.47617913  0.45827641     0.35300
C13         C  0.39343605  0.99838697  0.51223975    -0.22200
C14         C  0.39208311  0.48646579  0.49320692    -0.22200
C15         C  0.07423625  0.04416019  0.49904050    -0.22200
C16         C  0.07351243  0.53323883  0.47996365    -0.22200
C17         C  0.47878492  0.04966067  0.55372895    -0.23200
C18         C  0.01177817  0.04847883  0.55332048    -0.23200
C19         C  0.47193185  0.45916446  0.44165961    -0.23200
C20         C  0.00494542  0.46002242  0.44113940    -0.23200
C21         C  0.43552522  0.02429679  0.53322326    -0.18600
C22         C  0.43114910  0.47766070  0.46624310    -0.18600
C23         C  0.04546502  0.48659015  0.46296784    -0.18600
C24         C  0.05170667  0.02218319  0.53049932    -0.18600
H25         H  0.37320607  0.00079075  0.52211048     0.14300
H26         H  0.37067242  0.47742577  0.48589286     0.14300
H27         H  0.08878167  0.06499693  0.50456725     0.14300
H28         H  0.08740605  0.54322703  0.46782861     0.14300
H29         H  0.46433633  0.06441803  0.56389112     0.12600
H30         H  0.02759278  0.06348837  0.56249304     0.12600
H31         H  0.45650535  0.44857258  0.43041858     0.12600
H32         H  0.02009535  0.45119135  0.42924901     0.12600
H33         H  0.46673727  0.50798268  0.49768784     0.25900
H34         H  0.02398389  0.98079378  0.50158937     0.25900
N35         N  0.43923784  0.24186155  0.50091383    -0.36900
N36         N  0.98772371  0.23497981  0.53032503    -0.57400
N37         N  0.03524126  0.24527914  0.49974948    -0.36900
N38         N  0.98633792  0.25048669  0.46963346    -0.57400
C39         C  0.42176985  0.22963891  0.51610676     0.26700
C40         C  0.42132962  0.23817004  0.48452962     0.26700
C41         C  0.05386021  0.23372889  0.51458901     0.26700
C42         C  0.05306435  0.24405487  0.48314207     0.26700
C43         C  0.46216867  0.23661251  0.54241181     0.35300
C44         C  0.01392970  0.23712312  0.54176226     0.35300
C45         C  0.45972168  0.26111342  0.46011612     0.35300
C46         C  0.01163336  0.26272693  0.45940486     0.35300
C47         C  0.39259562  0.21755813  0.50923855    -0.22200
C48         C  0.39231183  0.22300681  0.48929484    -0.22200
C49         C  0.08383725  0.22496215  0.50725909    -0.22200
C50         C  0.08337880  0.23170913  0.48745246    -0.22200
C51         C  0.47210499  0.23973556  0.56174489    -0.23200
C52         C  0.00508207  0.23986894  0.56134326    -0.23200
C53         C  0.46814057  0.27934508  0.44343783    -0.23200
C54         C  0.00113795  0.28020841  0.44294067    -0.23200
C55         C  0.43033433  0.23193867  0.53615424    -0.18600
C56         C  0.42809148  0.25403067  0.46635244    -0.18600
C57         C  0.04398573  0.25790885  0.46480213    -0.18600
C58         C  0.04550515  0.23348766  0.53477455    -0.18600
H59         H  0.37309575  0.20698214  0.51778976     0.14300
H60         H  0.37241956  0.21794841  0.47952493     0.14300
H61         H  0.10430315  0.21565757  0.51541962     0.14300
H62         H  0.10334528  0.22869837  0.47743602     0.14300
H63         H  0.45720306  0.24074063  0.57475566     0.12600
H64         H  0.02074026  0.24120039  0.57398565     0.12600
H65         H  0.45225139  0.29104287  0.43284131     0.12600
H66         H  0.01570329  0.29268739  0.43191211     0.12600
H67         H  0.45958137  0.25707909  0.50205064     0.25900
H68         H  0.01341598  0.25779378  0.50127550     0.25900
N69         N  0.27467183  0.30576299  0.40564095    -0.06400
N70         N  0.30036147  0.28616342  0.40792669    -0.58500
N71         N  0.19985613  0.33116201  0.41866863    -0.06100
N72         N  0.17421495  0.32941335  0.42991755    -0.60600
N73         N  0.19921313  0.30720914  0.40511985    -0.05700
N74         N  0.17280167  0.28859878  0.40696478    -0.58500
N75         N  0.27398530  0.32974727  0.41916913    -0.05400
N76         N  0.29889904  0.32706903  0.43085647    -0.61000
C77         C  0.31526609  0.29979438  0.42384626     0.95800
C78         C  0.15734771  0.30275717  0.42259311     0.95600
N79         N  0.20201190  0.43473584  0.40594622    -0.06600
N80         N  0.17689987  0.45504692  0.40836743    -0.59100
N81         N  0.27483371  0.40887902  0.41994745    -0.04700
N82         N  0.29925851  0.41051623  0.43205402    -0.60300
N83         N  0.27664992  0.43313144  0.40665328    -0.06600
N84         N  0.30275476  0.45179852  0.40947395    -0.59400
N85         N  0.20167104  0.41027531  0.41914771    -0.04300
N86         N  0.17667378  0.41338155  0.43077671    -0.60400
Mn87       Mn  0.23754935  0.36991299  0.41979213     1.18400
C88         C  0.16127411  0.44139258  0.42400083     0.97900
C89         C  0.31673755  0.43703667  0.42535250     0.98500
N90         N  0.20213289  0.30674771  0.35872408    -0.06600
N91         N  0.18457567  0.28064585  0.35284622    -0.62900
N92         N  0.27536522  0.32885327  0.34566078    -0.05400
N93         N  0.29410602  0.31913513  0.33102087    -0.63600
N94         N  0.27461465  0.30498548  0.35929070    -0.06100
N95         N  0.29300506  0.27893872  0.35416338    -0.63200
N96         N  0.20299896  0.33053860  0.34504347    -0.05000
N97         N  0.18620443  0.32062313  0.32962970    -0.63900
Mn98       Mn  0.23761916  0.30516113  0.38242648     1.10700
C99         C  0.17455233  0.28953791  0.33470252     0.99100
C100        C  0.30544298  0.28808822  0.33657733     0.99200
N101        N  0.27690444  0.43501884  0.36002297    -0.06100
N102        N  0.29556856  0.46066002  0.35464795    -0.61500
N103        N  0.20428147  0.41310359  0.34570128    -0.05500
N104        N  0.18549981  0.42294081  0.33115881    -0.58200
N105        N  0.20428158  0.43646299  0.35967210    -0.06800
N106        N  0.18532292  0.46218923  0.35493603    -0.61100
N107        N  0.27698940  0.41098382  0.34642851    -0.05800
N108        N  0.29578772  0.41993125  0.33174085    -0.58300
Mn109      Mn  0.24004577  0.43593013  0.38324714     1.20200
Mn110      Mn  0.23988907  0.37094675  0.34538754     1.10100
Cl111      Cl  0.23878889  0.37052248  0.38254842    -0.86200
C112        C  0.30721457  0.45105759  0.33690013     0.96100
C113        C  0.17321737  0.45329165  0.33725470     0.95900
N114        N  0.27397080  0.19887882  0.59564902    -0.06400
N115        N  0.29939797  0.21902144  0.59423768    -0.58500
N116        N  0.20111711  0.17118074  0.58160171    -0.06100
N117        N  0.17586905  0.17232485  0.57011593    -0.60600
N118        N  0.19936270  0.19473268  0.59535521    -0.05700
N119        N  0.17257491  0.21259541  0.59346824    -0.58500
N120        N  0.27455727  0.17542575  0.58179787    -0.05400
N121        N  0.30019476  0.17886904  0.57074176    -0.61000
C122        C  0.31529219  0.20623760  0.57847055     0.95800
C123        C  0.15817285  0.19798890  0.57770117     0.95600
N124        N  0.20548162  0.06737906  0.59300609    -0.06600
N125        N  0.18130761  0.04598060  0.59003620    -0.59100
N126        N  0.27851879  0.09702644  0.58009136    -0.04700
N127        N  0.30351485  0.09755083  0.56834729    -0.60300
N128        N  0.28092993  0.07218601  0.59297148    -0.06600
N129        N  0.30812047  0.05519460  0.59005921    -0.59400
N130        N  0.20491128  0.09205907  0.57991535    -0.04300
N131        N  0.18073706  0.08795700  0.56771202    -0.60400
Mn132      Mn  0.23967838  0.13396036  0.58031124     1.18400
C133        C  0.16618014  0.05921283  0.57413674     0.97900
C134        C  0.32199565  0.07143603  0.57449959     0.98500
N135        N  0.19990217  0.19344033  0.64152781    -0.06600
N136        N  0.17926241  0.21744451  0.64661299    -0.62900
N137        N  0.27390681  0.17337248  0.65527158    -0.05400
N138        N  0.29309307  0.18288909  0.66972614    -0.63600
N139        N  0.27270172  0.19745203  0.64178456    -0.06100
N140        N  0.29124153  0.22337064  0.64671924    -0.63200
N141        N  0.20101191  0.16935723  0.65500162    -0.05000
N142        N  0.18118549  0.17689607  0.66952197    -0.63900
Mn143      Mn  0.23641743  0.19720737  0.61844044     1.10700
C144        C  0.16771313  0.20708804  0.66418581     0.99100
C145        C  0.30423052  0.21394155  0.66404784     0.99200
N146        N  0.27894881  0.06809855  0.63962838    -0.06100
N147        N  0.29826304  0.04271221  0.64440449    -0.61500
N148        N  0.20520170  0.08755845  0.65360286    -0.05500
N149        N  0.18607535  0.07736837  0.66787609    -0.58200
N150        N  0.20630621  0.06434174  0.63955241    -0.06800
N151        N  0.18770703  0.03813768  0.64407602    -0.61100
N152        N  0.27765490  0.09082035  0.65394274    -0.05800
N153        N  0.29598990  0.08087166  0.66869090    -0.58300
Mn154      Mn  0.24301702  0.06687281  0.61607540     1.20200
Mn155      Mn  0.23950591  0.13029281  0.65486587     1.10100
Cl156      Cl  0.23965862  0.13200775  0.61758172    -0.86200
C157        C  0.30916852  0.05104231  0.66246435     0.96100
C158        C  0.17483913  0.04671194  0.66168854     0.95900
N159        N  0.28988774  0.99681699  0.00193364    -0.36900
N160        N  0.24202328  0.01817909  0.97397148    -0.57400
N161        N  0.19352533  0.00269178  0.00354703    -0.36900
N162        N  0.24156668  0.47903605  0.03073501    -0.57400
C163        C  0.30743029  0.99900576  0.98526205     0.26700
C164        C  0.30723814  0.47861770  0.01492593     0.26700
C165        C  0.17537739  0.00753339  0.98734937     0.26700
C166        C  0.17495446  0.48642365  0.01692835     0.26700
C167        C  0.26834915  0.03089115  0.96502932     0.35300
C168        C  0.21657776  0.03410230  0.96587205     0.35300
C169        C  0.26772783  0.47517767  0.04212834     0.35300
C170        C  0.21597265  0.47715764  0.04279963     0.35300
C171        C  0.33618833  0.98174915  0.98766940    -0.22200
C172        C  0.33594032  0.46862822  0.00634614    -0.22200
C173        C  0.14497614  0.99424689  0.99047752    -0.22200
C174        C  0.14468452  0.48089293  0.00913977    -0.22200
C175        C  0.25963405  0.05470343  0.95094808    -0.23200
C176        C  0.22666680  0.05670458  0.95145865    -0.23200
C177        C  0.25874594  0.47025682  0.06153087    -0.23200
C178        C  0.22582431  0.47133893  0.06193766    -0.23200
C179        C  0.29986220  0.01977207  0.96895721    -0.18600
C180        C  0.29937927  0.47381258  0.03492232    -0.18600
C181        C  0.18386633  0.47864819  0.03647201    -0.18600
C182        C  0.18442309  0.02685419  0.97069674    -0.18600
H183        H  0.35561160  0.97960227  0.97719083     0.14300
H184        H  0.35525339  0.45441110  0.01312157     0.14300
H185        H  0.12477922  0.99484693  0.98052453     0.14300
H186        H  0.12432678  0.46909844  0.01629759     0.14300
H187        H  0.27534256  0.06893480  0.94129120     0.12600
H188        H  0.21183027  0.07285413  0.94229645     0.12600
H189        H  0.27422238  0.46580741  0.07401377     0.12600
H190        H  0.21086987  0.46800168  0.07479137     0.12600
H191        H  0.26968908  0.01132370  0.00525320     0.25900
H192        H  0.21566398  0.01396511  0.00620609     0.25900
N193        N  0.29025942  0.24198192  0.00070286    -0.36900
N194        N  0.24285927  0.24801566  0.03201371    -0.57400
N195        N  0.19578913  0.24136969  0.00112240    -0.36900
N196        N  0.24311718  0.23505668  0.97083271    -0.57400
C197        C  0.30721649  0.23643837  0.01724653     0.26700
C198        C  0.30797327  0.22999647  0.98557166     0.26700
C199        C  0.17814241  0.23862410  0.01767958     0.26700
C200        C  0.17790669  0.22890563  0.98620885     0.26700
C201        C  0.26903065  0.26103760  0.04085676     0.35300
C202        C  0.21730723  0.26240708  0.04091986     0.35300
C203        C  0.26876019  0.23908911  0.95908938     0.35300
C204        C  0.21709399  0.23734632  0.95930161     0.35300
C205        C  0.33582239  0.22017028  0.01266551    -0.22200
C206        C  0.33628444  0.21600842  0.99260637    -0.22200
C207        C  0.14890198  0.22360153  0.01337751    -0.22200
C208        C  0.14877746  0.21732624  0.99348798    -0.22200
C209        C  0.26019728  0.28332643  0.05577469    -0.23200
C210        C  0.22716085  0.28411161  0.05585942    -0.23200
C211        C  0.25910682  0.24388990  0.93981810    -0.23200
C212        C  0.22611310  0.24264107  0.93994450    -0.23200
C213        C  0.30050104  0.25240404  0.03535326    -0.18600
C214        C  0.30041896  0.23451368  0.96554938    -0.18600
C215        C  0.18577316  0.23145115  0.96604927    -0.18600
C216        C  0.18544935  0.25567036  0.03540216    -0.18600
H217        H  0.35507281  0.21378482  0.02265771     0.14300
H218        H  0.35578152  0.20521861  0.98410951     0.14300
H219        H  0.12909342  0.21940897  0.02336360     0.14300
H220        H  0.12888256  0.20696334  0.98520984     0.14300
H221        H  0.27587266  0.29777780  0.06535155     0.12600
H222        H  0.21219545  0.29934545  0.06549244     0.12600
H223        H  0.27422166  0.24687100  0.92700667     0.12600
H224        H  0.21061712  0.24455643  0.92725755     0.12600
H225        H  0.27058776  0.25827743  0.99955295     0.25900
H226        H  0.21622968  0.25639219  0.99967787     0.25900
N227        N  0.45470150  0.19754019  0.90573983    -0.06400
N228        N  0.42809804  0.21589727  0.90644208    -0.58500
N229        N  0.52850132  0.17568278  0.92121225    -0.06100
N230        N  0.05340429  0.17896608  0.93289244    -0.60600
N231        N  0.52912645  0.19897496  0.90735069    -0.05700
N232        N  0.05463606  0.21878350  0.90931086    -0.58500
N233        N  0.45477685  0.17445543  0.91974317    -0.05400
N234        N  0.42830609  0.17620122  0.93018108    -0.61000
C235        C  0.41197162  0.20198384  0.92171180     0.95800
C236        C  0.06932096  0.20608917  0.92546012     0.95600
N237        N  0.52977030  0.07126520  0.91029799    -0.06600
N238        N  0.05595545  0.05275260  0.91317064    -0.59100
N239        N  0.45556288  0.09630358  0.92219047    -0.04700
N240        N  0.43140170  0.09476027  0.93450911    -0.60300
N241        N  0.45436689  0.07114854  0.90938385    -0.06600
N242        N  0.42883611  0.05178003  0.91299306    -0.59400
N243        N  0.52880869  0.09661335  0.92299450    -0.04300
N244        N  0.05385421  0.09585249  0.93469933    -0.60400
Mn245      Mn  0.49200625  0.13580776  0.92206632     1.18400
C246        C  0.07078198  0.06841285  0.92851690     0.97900
C247        C  0.41470741  0.06701964  0.92886184     0.98500
N248        N  0.03105970  0.19666562  0.86163198    -0.06600
N249        N  0.04877704  0.22308839  0.85657623    -0.62900
N250        N  0.45976658  0.17205623  0.84608006    -0.05400
N251        N  0.44227816  0.18094882  0.83073054    -0.63600
N252        N  0.45846086  0.19616239  0.85959505    -0.06100
N253        N  0.43988132  0.22150375  0.85375637    -0.63200
N254        N  0.03216440  0.17276702  0.84799315    -0.05000
N255        N  0.05023594  0.18324226  0.83321081    -0.63900
Mn256      Mn  0.49323793  0.19816470  0.88375024     1.10700
C257        C  0.06068627  0.21467466  0.83879990     0.99100
C258        C  0.42977739  0.21182291  0.83572832     0.99200
N259        N  0.45851274  0.06651066  0.86174912    -0.06100
N260        N  0.44072787  0.04039168  0.85582281    -0.61500
N261        N  0.03245001  0.08960824  0.84989935    -0.05500
N262        N  0.05156714  0.07880511  0.83570200    -0.58200
N263        N  0.03098725  0.06647112  0.86394701    -0.06800
N264        N  0.04921033  0.03992663  0.85948233    -0.61100
N265        N  0.46001313  0.08985539  0.84778820    -0.05800
N266        N  0.44322262  0.08004028  0.83238244    -0.58300
Mn267      Mn  0.49311099  0.06760262  0.88656311     1.20200
Mn268      Mn  0.49624346  0.13097275  0.84764704     1.10100
Cl269      Cl  0.49357939  0.13298768  0.88486788    -0.86200
C270        C  0.43115111  0.04923820  0.83747421     0.96100
C271        C  0.06204840  0.04776221  0.84179121     0.95900
N272        N  0.09020358  0.38293177  0.77681212    -0.36900
N273        N  0.11168366  0.43391504  0.74917966    -0.57400
N274        N  0.12520018  0.38007971  0.72019140    -0.36900
N275        N  0.10618260  0.32924825  0.74842299    -0.57400
C276        C  0.09195918  0.41078318  0.78865044     0.26700
C277        C  0.09047290  0.35495128  0.78851810     0.26700
C278        C  0.14030095  0.40710386  0.71193993     0.26700
C279        C  0.13649775  0.35132661  0.71140375     0.26700
C280        C  0.09815751  0.45484934  0.76272179     0.35300
C281        C  0.11741985  0.45329714  0.73314441     0.35300
C282        C  0.09151604  0.31038836  0.76236728     0.35300
C283        C  0.10844719  0.30900274  0.73237432     0.35300
C284        C  0.09272961  0.40035175  0.80810664    -0.22200
C285        C  0.09182273  0.36513270  0.80801924    -0.22200
C286        C  0.16122059  0.39545371  0.69753962    -0.22200
C287        C  0.15885976  0.36022153  0.69722683    -0.22200
C288        C  0.09522807  0.48767801  0.75524482    -0.23200
C289        C  0.10752780  0.48673163  0.73652698    -0.23200
C290        C  0.08424220  0.27809960  0.75515076    -0.23200
C291        C  0.09488350  0.27725107  0.73610557    -0.23200
C292        C  0.09169135  0.44537676  0.78238454    -0.18600
C293        C  0.08793909  0.32055614  0.78211646    -0.18600
C294        C  0.12579564  0.31752374  0.71524911    -0.18600
C295        C  0.13409170  0.44201736  0.71620924    -0.18600
H296        H  0.09397734  0.41642644  0.82105012     0.14300
H297        H  0.09207997  0.34887573  0.82087718     0.14300
H298        H  0.17643237  0.41077335  0.68813370     0.14300
H299        H  0.17189528  0.34314931  0.68754842     0.14300
H300        H  0.08596218  0.01027896  0.76272599     0.12600
H301        H  0.10948962  0.00850119  0.72671797     0.12600
H302        H  0.07323449  0.25705090  0.76297632     0.12600
H303        H  0.09360028  0.25541475  0.72632259     0.12600
H304        H  0.08581259  0.38306500  0.76178253     0.25900
H305        H  0.10573885  0.38153599  0.72970612     0.25900
N306        N  0.36756051  0.33004238  0.75009010    -0.36900
N307        N  0.38266327  0.38210723  0.77886167    -0.57400
N308        N  0.36911679  0.43451346  0.74947481    -0.36900
N309        N  0.35156400  0.38227170  0.72131710    -0.57400
C310        C  0.36894936  0.31111686  0.76670018     0.26700
C311        C  0.35190696  0.31109776  0.73652087     0.26700
C312        C  0.37070902  0.45352562  0.76608332     0.26700
C313        C  0.35384398  0.45364794  0.73581301     0.26700
C314        C  0.39446080  0.35434330  0.78826654     0.35300
C315        C  0.39504943  0.40985411  0.78798437     0.35300
C316        C  0.34883303  0.35431508  0.70972592     0.35300
C317        C  0.34949355  0.40983277  0.70940519     0.35300
C318        C  0.35400646  0.27986109  0.76365470    -0.22200
C319        C  0.34327994  0.27981914  0.74459497    -0.22200
C320        C  0.35640305  0.48509410  0.76293170    -0.22200
C321        C  0.34575564  0.48518092  0.74382129    -0.22200
C322        C  0.41422640  0.36448165  0.80354011    -0.23200
C323        C  0.41463493  0.39969883  0.80334805    -0.23200
C324        C  0.34482782  0.36412668  0.69031951    -0.23200
C325        C  0.34527071  0.39935732  0.69011271    -0.23200
C326        C  0.38577833  0.32013639  0.78394339    -0.18600
C327        C  0.34699597  0.32028879  0.71669084    -0.18600
C328        C  0.34855934  0.44417291  0.71601126    -0.18600
C329        C  0.38694690  0.44412398  0.78348441    -0.18600
H330        H  0.35154287  0.25901791  0.77400787     0.14300
H331        H  0.33092049  0.25889846  0.73741826     0.14300
H332        H  0.35420414  0.00610349  0.77322534     0.14300
H333        H  0.33377543  0.00625228  0.73652096     0.14300
H334        H  0.42672455  0.34824183  0.81387412     0.12600
H335        H  0.42746555  0.41597509  0.81353701     0.12600
H336        H  0.34120671  0.34764989  0.67771293     0.12600
H337        H  0.34207951  0.41540210  0.67731271     0.12600
H338        H  0.38008859  0.35255769  0.74741046     0.25900
H339        H  0.38116981  0.41160699  0.74695357     0.25900
N340        N  0.10902118  0.11878420  0.21806636    -0.36900
N341        N  0.11723964  0.06760813  0.24886519    -0.57400
N342        N  0.14114161  0.12032039  0.27521969    -0.36900
N343        N  0.12985306  0.17143243  0.24521287    -0.57400
C344        C  0.09367186  0.09165517  0.21007390     0.26700
C345        C  0.09816975  0.14725225  0.20886490     0.26700
C346        C  0.13909602  0.09375180  0.28787545     0.26700
C347        C  0.14482361  0.14919184  0.28601743     0.26700
C348        C  0.11150805  0.04661825  0.23346536     0.35300
C349        C  0.12770107  0.04735333  0.26361693     0.35300
C350        C  0.12838222  0.18991811  0.22853160     0.35300
C351        C  0.14598467  0.19071691  0.25833974     0.35300
C352        C  0.07333546  0.10279234  0.19533234    -0.22200
C353        C  0.07582739  0.13796302  0.19474823    -0.22200
C354        C  0.14229924  0.10571222  0.30695139    -0.22200
C355        C  0.14563892  0.14076150  0.30579706    -0.22200
C356        C  0.11766291  0.01290028  0.23859335    -0.23200
C357        C  0.12780608  0.01335596  0.25770964    -0.23200
C358        C  0.14401254  0.22096285  0.23097764    -0.23200
C359        C  0.15513587  0.22149712  0.24992542    -0.23200
C360        C  0.09858879  0.05703691  0.21528130    -0.18600
C361        C  0.10946597  0.18102628  0.21215422    -0.18600
C362        C  0.14916251  0.18260434  0.27838914    -0.18600
C363        C  0.13661740  0.05883539  0.28252337    -0.18600
H364        H  0.05808942  0.08721430  0.18607736     0.14300
H365        H  0.06297684  0.15468385  0.18483816     0.14300
H366        H  0.14237570  0.09072303  0.32031035     0.14300
H367        H  0.14888066  0.15796256  0.31811973     0.14300
H368        H  0.11484501  0.49011275  0.22957842     0.12600
H369        H  0.13445203  0.49106178  0.26628093     0.12600
H370        H  0.14623647  0.24150301  0.22040669     0.12600
H371        H  0.16765190  0.24251374  0.25690718     0.12600
H372        H  0.12818880  0.11741889  0.22769041     0.25900
H373        H  0.14349018  0.11835442  0.26016646     0.25900
N374        N  0.36190276  0.17094134  0.24799395    -0.36900
N375        N  0.34670515  0.11986756  0.27720019    -0.57400
N376        N  0.36420743  0.06678787  0.24916705    -0.36900
N377        N  0.38125951  0.11810865  0.22047454    -0.57400
C378        C  0.35981192  0.19025869  0.26445356     0.26700
C379        C  0.37811052  0.18951182  0.23452767     0.26700
C380        C  0.36174068  0.04832663  0.26588665     0.26700
C381        C  0.38019667  0.04730409  0.23593785     0.26700
C382        C  0.33312691  0.14762827  0.28566367     0.35300
C383        C  0.33426516  0.09221822  0.28630348     0.35300
C384        C  0.38199402  0.14542032  0.20835189     0.35300
C385        C  0.38348317  0.09000345  0.20897638     0.35300
C386        C  0.37496281  0.22139155  0.26146160    -0.22200
C387        C  0.38640412  0.22099633  0.24251390    -0.22200
C388        C  0.37623813  0.01665739  0.26322788    -0.22200
C389        C  0.38784454  0.01599638  0.24431083    -0.22200
C390        C  0.31193543  0.13764510  0.30024563    -0.23200
C391        C  0.31256496  0.10241590  0.30060508    -0.23200
C392        C  0.38494074  0.13469715  0.18901892    -0.23200
C393        C  0.38575876  0.09948964  0.18940503    -0.23200
C394        C  0.34170260  0.18172518  0.28127759    -0.18600
C395        C  0.38321830  0.17975362  0.21479303    -0.18600
C396        C  0.38611194  0.05617614  0.21613112    -0.18600
C397        C  0.34428495  0.05819458  0.28281580    -0.18600
H398        H  0.37682874  0.24254054  0.27169447     0.14300
H399        H  0.39888313  0.24181303  0.23535388     0.14300
H400        H  0.37811833  0.49595568  0.27360147     0.14300
H401        H  0.40024673  0.49475597  0.23726105     0.14300
H402        H  0.29781846  0.15402286  0.30974703     0.12600
H403        H  0.29910214  0.08618298  0.31049263     0.12600
H404        H  0.38696790  0.15057501  0.17606204     0.12600
H405        H  0.38852018  0.08282346  0.17679370     0.12600
H406        H  0.34927801  0.14849103  0.24523067     0.25900
H407        H  0.35217948  0.08948273  0.24620562     0.25900
N408        N  0.45515021  0.30487440  0.09244000    -0.06400
N409        N  0.43006205  0.28506178  0.08886371    -0.58500
N410        N  0.52938467  0.32985390  0.08050311    -0.06100
N411        N  0.05439040  0.32763653  0.06884128    -0.60600
N412        N  0.52981035  0.30540436  0.09371577    -0.05700
N413        N  0.05556047  0.28599280  0.09128283    -0.58500
N414        N  0.45663247  0.32943825  0.07934520    -0.05400
N415        N  0.43309751  0.32697867  0.06669282    -0.61000
C416        C  0.41667988  0.29922870  0.07257632     0.95800
C417        C  0.07072913  0.30033700  0.07567059     0.95600
N418        N  0.52909504  0.43243359  0.09491445    -0.06600
N419        N  0.05558110  0.45098224  0.09367861    -0.59100
N420        N  0.45504731  0.40795229  0.08044046    -0.04700
N421        N  0.42901404  0.40884353  0.06955014    -0.60300
N422        N  0.45414171  0.43190923  0.09399248    -0.06600
N423        N  0.42739039  0.44989475  0.09252619    -0.59400
N424        N  0.52906707  0.40856611  0.08131644    -0.04300
N425        N  0.05526885  0.41010246  0.07062607    -0.60400
Mn426      Mn  0.49255299  0.36910328  0.07982622     1.18400
C427        C  0.07172347  0.43639049  0.07850911     1.02300
C428        C  0.41197577  0.43495130  0.07727485     0.98500
N429        N  0.02679681  0.30353696  0.14009978    -0.06600
N430        N  0.04696133  0.27888608  0.14485166    -0.62900
N431        N  0.45315380  0.32618070  0.15296094    -0.05400
N432        N  0.43350752  0.31655088  0.16713070    -0.63600
N433        N  0.45399829  0.30271810  0.13904863    -0.06100
N434        N  0.43486865  0.27700488  0.14355099    -0.63200
N435        N  0.02600215  0.32704450  0.15397389    -0.05000
N436        N  0.04556139  0.31860734  0.16838950    -0.63900
Mn437      Mn  0.49140353  0.30292025  0.11620607     1.10700
C438        C  0.05859895  0.28849533  0.16256832     0.99100
C439        C  0.42181681  0.28600008  0.16100200     0.99200
N440        N  0.45331169  0.43230436  0.13989289    -0.06100
N441        N  0.43396563  0.45775686  0.14447902    -0.61500
N442        N  0.02533691  0.40892262  0.15472144    -0.05500
N443        N  0.04394082  0.41798796  0.16951415    -0.58200
N444        N  0.02599841  0.43257952  0.14098455    -0.06800
N445        N  0.04517928  0.45784698  0.14611580    -0.61100
N446        N  0.45254105  0.40859416  0.15359418    -0.05800
N447        N  0.43275617  0.41793131  0.16780852    -0.58300
Mn448      Mn  0.49069670  0.43340362  0.11725510     1.20200
Mn449      Mn  0.48917164  0.36762566  0.15426607     1.10100
Cl450      Cl  0.49093102  0.36819841  0.11699987    -0.86200
C451        C  0.42088092  0.44851924  0.16182754     0.96100
C452        C  0.05645555  0.44844036  0.16388721     0.95900
C453        C  0.43461668  0.49891905  0.18195881    -0.20600
C454        C  0.41141593  0.47504646  0.17607362    -0.07100
C455        C  0.38008643  0.97780505  0.18337783     0.13700
C456        C  0.37238917  0.00452621  0.19640079    -0.20600
C457        C  0.39561418  0.02847124  0.20227799    -0.07200
C458        C  0.42732935  0.02545098  0.19520978     0.13700
C459        C  0.45344621  0.04948239  0.20185708    -0.24000
H460        H  0.45866908  0.49695360  0.17609374     0.15000
H461        H  0.34814846  0.00692953  0.20196987     0.15000
C462        C  0.35458234  0.95293962  0.17700943    -0.23900
H463        H  0.47690468  0.54228556  0.19544355     0.05200
H464        H  0.45564516  0.04850063  0.21809439     0.08500
H465        H  0.44788155  0.07607392  0.19730081     0.08500
H466        H  0.36132074  0.42652648  0.18113889     0.08400
H467        H  0.35149100  0.45411424  0.16066981     0.08400
H468        H  0.33110412  0.95878342  0.18395191     0.05200
C469        C  0.42465011  0.21599780  0.19933765    -0.20600
C470        C  0.39230464  0.20673702  0.20054307    -0.07100
C471        C  0.36936122  0.22406806  0.18893762     0.13700
C472        C  0.37954198  0.25012584  0.17618318    -0.20600
C473        C  0.41188180  0.25950920  0.17511007    -0.07200
C474        C  0.43469783  0.24242687  0.18689783     0.13700
C475        C  0.46961709  0.25216382  0.18645634    -0.24000
H476        H  0.44199227  0.20277098  0.20843518     0.15000
H477        H  0.36214485  0.26323441  0.16706834     0.15000
C478        C  0.33412341  0.21576959  0.18970699    -0.23900
H479        H  0.48412753  0.23622546  0.19661825     0.05200
H480        H  0.47221469  0.27931294  0.19099317     0.08500
H481        H  0.47939363  0.24882834  0.17140658     0.08500
H482        H  0.32052674  0.23889214  0.19430839     0.08400
H483        H  0.32840782  0.19487938  0.20014057     0.08400
H484        H  0.32584719  0.20776716  0.17490119     0.05200
C485        C  0.05959785  0.51224758  0.20584496    -0.20600
C486        C  0.08790973  0.02986310  0.20151439    -0.07100
C487        C  0.10661756  0.01965462  0.18519416     0.13700
C488        C  0.09588316  0.99264593  0.17331066    -0.20600
C489        C  0.06787686  0.47446908  0.17790153    -0.07200
C490        C  0.04946362  0.48441032  0.19442524     0.13700
C491        C  0.01890794  0.46624529  0.19993306    -0.24000
H492        H  0.04562039  0.52013102  0.21850566     0.15000
H493        H  0.10974879  0.98527516  0.16049636     0.15000
C494        C  0.13821434  0.03613367  0.18014836    -0.23900
H495        H  0.00658483  0.47888981  0.21247388     0.05200
H496        H  0.02433302  0.43948876  0.20428294     0.08500
H497        H  0.00225326  0.46603580  0.18727357     0.08500
H498        H  0.14503210  0.05683253  0.19048185     0.08400
H499        H  0.13694197  0.04723023  0.16516762     0.08400
H500        H  0.15743788  0.01645351  0.18045486     0.05200
C501        C  0.09287596  0.23753807  0.16758037    -0.20600
C502        C  0.07396257  0.26351141  0.17600782    -0.07100
C503        C  0.06827442  0.26302790  0.19655737     0.13700
C504        C  0.07989905  0.23553406  0.20768036    -0.20600
C505        C  0.09834858  0.20934816  0.19916410    -0.07200
C506        C  0.10580898  0.21098680  0.17894049     0.13700
C507        C  0.12752992  0.18552544  0.16891081    -0.24000
H508        H  0.09781218  0.23804287  0.15193870     0.15000
H509        H  0.07460491  0.23437595  0.22326443     0.15000
C510        C  0.04962811  0.29067602  0.20703039    -0.23900
H511        H  0.11389249  0.17147973  0.15745506     0.05200
H512        H  0.13803365  0.16661715  0.17916865     0.08500
H513        H  0.14771024  0.19932529  0.16182415     0.08500
H514        H  0.02504048  0.29235451  0.20102129     0.08400
H515        H  0.56200125  0.31564013  0.20533357     0.08400
H516        H  0.54746544  0.28554698  0.22302494     0.05200
C517        C  0.05478753  0.47215815  0.80672902    -0.20600
C518        C  0.08480383  0.47256900  0.79737503    -0.07100
C519        C  0.10768555  0.49753603  0.80311789     0.13700
C520        C  0.09955770  0.52176889  0.81760994    -0.20600
C521        C  0.06992076  0.02078990  0.82727011    -0.07200
C522        C  0.04729484  0.99545341  0.82189327     0.13700
C523        C  0.01512412  0.99280289  0.83191991    -0.24000
H524        H  0.03736794  0.95302900  0.80253846     0.15000
H525        H  0.11680305  0.54127066  0.82171567     0.15000
C526        C  0.14108879  0.49901423  0.79471110    -0.23900
H527        H  0.99951884  0.97333446  0.82484536     0.05200
H528        H  0.00251559  0.01777266  0.83142007     0.08500
H529        H  0.01846719  0.98521516  0.84748113     0.08500
H530        H  0.14640633  0.47782699  0.78438942     0.08400
H531        H  0.15881828  0.49738049  0.80681955     0.08400
H532        H  0.14446499  0.52367459  0.78687515     0.05200
C533        C  0.09775970  0.24343631  0.81575294    -0.20600
C534        C  0.06728608  0.24169516  0.82427962    -0.07100
C535        C  0.04371679  0.26633474  0.81923705     0.13700
C536        C  0.05108154  0.29156020  0.80534211    -0.20600
C537        C  0.08163416  0.29346889  0.79692826    -0.07200
C538        C  0.10546927  0.26956553  0.80242005     0.13700
C539        C  0.13924079  0.27229080  0.79472347    -0.24000
H540        H  0.11577767  0.22481231  0.81991993     0.15000
H541        H  0.03307187  0.31018070  0.80113974     0.15000
C542        C  0.01080154  0.26628921  0.82844246    -0.23900
H543        H  0.15506994  0.25235898  0.80113278     0.05200
H544        H  0.14927354  0.29776654  0.79857678     0.08500
H545        H  0.13959655  0.26908456  0.77854338     0.08500
H546        H  0.01260867  0.27246879  0.84431171     0.08400
H547        H  0.99953430  0.24078117  0.82668431     0.08400
H548        H  0.99476528  0.28563475  0.82163364     0.05200
C549        C  0.39451156  0.50127129  0.82881286    -0.20600
C550        C  0.41897898  0.02391710  0.82293142    -0.07100
C551        C  0.43165109  0.02106076  0.80359740     0.13700
C552        C  0.42078408  0.49466270  0.79127328    -0.20600
C553        C  0.39683844  0.47185803  0.79729498    -0.07200
C554        C  0.38271718  0.47593658  0.81601094     0.13700
C555        C  0.35456818  0.45435063  0.82220881    -0.24000
H556        H  0.38426408  0.50386257  0.84337626     0.15000
H557        H  0.43099960  0.49175952  0.77671245     0.15000
C558        C  0.45696728  0.04504099  0.79578601    -0.23900
H559        H  0.34558668  0.46184310  0.83696381     0.05200
H560        H  0.36142283  0.42694117  0.82279911     0.08500
H561        H  0.33469901  0.45763067  0.81153481     0.08500
H562        H  0.47844266  0.04460679  0.80531854     0.08400
H563        H  0.44728689  0.07147636  0.79501276     0.08400
H564        H  0.46477015  0.03783054  0.78072995     0.05200
C565        C  0.41697299  0.26702994  0.79015392    -0.20600
C566        C  0.39573297  0.29191129  0.79744137    -0.07100
C567        C  0.38415628  0.28883367  0.81689380     0.13700
C568        C  0.39540358  0.26202465  0.82876018    -0.20600
C569        C  0.41685608  0.23722993  0.82155353    -0.07200
C570        C  0.42739473  0.23951552  0.80178735     0.13700
C571        C  0.45016255  0.21385661  0.79282522    -0.24000
H572        H  0.42549425  0.26928067  0.77516078     0.15000
H573        H  0.38710695  0.26033867  0.84383080     0.15000
C574        C  0.35963664  0.31289385  0.82554456    -0.23900
H575        H  0.45630388  0.22042670  0.77740637     0.05200
H576        H  0.43894506  0.18809665  0.79269052     0.08500
H577        H  0.47284744  0.21302162  0.80125275     0.08500
H578        H  0.33859763  0.29797572  0.83068289     0.08400
H579        H  0.35078408  0.33209940  0.81489815     0.08400
H580        H  0.37023299  0.32664884  0.83826025     0.05200
C581        C  0.15198155  0.25775948  0.06587617    -0.20600
C582        C  0.15832290  0.27005961  0.04690374    -0.07100
C583        C  0.13698061  0.29368050  0.03822896     0.13700
C584        C  0.10844457  0.30171539  0.04783689    -0.20600
C585        C  0.10128123  0.28881411  0.06659215    -0.07200
C586        C  0.12393612  0.26738502  0.07603627     0.13700
C587        C  0.11918375  0.25508397  0.09678510    -0.24000
H588        H  0.16877754  0.24014047  0.07259086     0.15000
H589        H  0.09182180  0.31882345  0.04054420     0.15000
C590        C  0.14361693  0.31123745  0.01889879    -0.23900
H591        H  0.14005148  0.24001735  0.10205020     0.05200
H592        H  0.09774874  0.23835716  0.09762399     0.08500
H593        H  0.11618846  0.27738428  0.10677595     0.08500
H594        H  0.12569049  0.30296121  0.00782612     0.08400
H595        H  0.16793753  0.30600220  0.01309286     0.08400
H596        H  0.14177559  0.33941188  0.02089964     0.05200
C597        C  0.34768055  0.28967539  0.03660879    -0.20600
C598        C  0.32825312  0.26604193  0.04640183    -0.07100
C599        C  0.33758036  0.25345588  0.06491878     0.13700
C600        C  0.36639255  0.26505343  0.07324987    -0.20600
C601        C  0.38639874  0.28812788  0.06319875    -0.07200
C602        C  0.37695370  0.30024787  0.04437400     0.13700
C603        C  0.39777367  0.32285474  0.03164286    -0.24000
H604        H  0.34035621  0.29875814  0.02224260     0.15000
H605        H  0.37351550  0.25562057  0.08755144     0.15000
C606        C  0.31793094  0.22691399  0.07548892    -0.23900
H607        H  0.38712476  0.32709260  0.01689387     0.05200
H608        H  0.42149179  0.31057388  0.02935267     0.08500
H609        H  0.40077191  0.34847648  0.03841135     0.08500
H610        H  0.31541845  0.20377898  0.06611185     0.08400
H611        H  0.29381766  0.23723299  0.07893421     0.08400
H612        H  0.32928003  0.21910161  0.08953345     0.05200
C613        C  0.13940559  0.25384474  0.94738723    -0.20600
C614        C  0.15980618  0.22628771  0.95163154    -0.07100
C615        C  0.15257359  0.19325869  0.94457922     0.13700
C616        C  0.12352675  0.18790555  0.93484683    -0.20600
C617        C  0.10191438  0.21493282  0.93183639    -0.07200
C618        C  0.11044981  0.24856441  0.93737226     0.13700
C619        C  0.08826558  0.27836792  0.93390149    -0.24000
H620        H  0.14537469  0.27913748  0.95286714     0.15000
H621        H  0.11700851  0.16220324  0.93029724     0.15000
C622        C  0.17473047  0.16345906  0.94823026    -0.23900
H623        H  0.09849285  0.30272169  0.93956575     0.05200
H624        H  0.06505487  0.27386100  0.94144684     0.08500
H625        H  0.08403551  0.28141270  0.91790692     0.08500
H626        H  0.17792246  0.15970383  0.96426021     0.08400
H627        H  0.19841294  0.16861415  0.94141041     0.08400
H628        H  0.16521019  0.13927860  0.94189800     0.05200
C629        C  0.37852359  0.24527894  0.93799434    -0.20600
C630        C  0.38067940  0.21324996  0.92884596    -0.07100
C631        C  0.35453771  0.19035644  0.92945430     0.13700
C632        C  0.32744900  0.19914332  0.94046047    -0.20600
C633        C  0.32630580  0.22999340  0.95095078    -0.07200
C634        C  0.35155564  0.25390460  0.94922972     0.13700
C635        C  0.35043910  0.28795556  0.95966853    -0.24000
H636        H  0.39879927  0.26260281  0.93739333     0.15000
H637        H  0.30778967  0.18114286  0.94176960     0.15000
C638        C  0.35533476  0.15655398  0.91870784    -0.23900
H639        H  0.37196555  0.30369194  0.95641399     0.05200
H640        H  0.34934614  0.28411352  0.97579593     0.08500
H641        H  0.32895475  0.30245387  0.95485810     0.08500
H642        H  0.37494126  0.14020441  0.92438955     0.08400
H643        H  0.35923689  0.16112532  0.90279562     0.08400
H644        H  0.33252336  0.14221761  0.92046032     0.05200
C645        C  0.15372479  0.43429914  0.05471328    -0.20600
C646        C  0.15806618  0.46902232  0.05044974    -0.07100
C647        C  0.13625957  0.49347943  0.05793416     0.13700
C648        C  0.10914916  0.48230639  0.06833886    -0.20600
C649        C  0.10332005  0.44728079  0.07107799    -0.07200
C650        C  0.12659400  0.42303661  0.06494261     0.13700
C651        C  0.12305769  0.38526184  0.06901692    -0.24000
H652        H  0.17092978  0.41580747  0.04919265     0.15000
H653        H  0.09185142  0.00093408  0.07351259     0.15000
C654        C  0.14169171  0.03122440  0.05476716    -0.23900
H655        H  0.14482145  0.37067203  0.06468524     0.05200
H656        H  0.10279271  0.37466125  0.06047848     0.08500
H657        H  0.11896452  0.38104458  0.08494885     0.08500
H658        H  0.14126467  0.03707847  0.03882841     0.08400
H659        H  0.16526673  0.03883662  0.06092435     0.08400
H660        H  0.12284827  0.04688857  0.06201927     0.05200
C661        C  0.37645361  0.47990194  0.06415684    -0.20600
C662        C  0.38063271  0.44564060  0.06961741    -0.07100
C663        C  0.35596213  0.42160912  0.06603145     0.13700
C664        C  0.32890132  0.43181071  0.05538363    -0.20600
C665        C  0.32587078  0.46548881  0.04860052    -0.07200
C666        C  0.34927465  0.49015420  0.05361092     0.13700
C667        C  0.34581231  0.52709302  0.04756407    -0.24000
H668        H  0.39522773  0.49829690  0.06728368     0.15000
H669        H  0.31045068  0.41327985  0.05182705     0.15000
C670        C  0.35774699  0.38547923  0.07374383    -0.23900
H671        H  0.36582304  0.54304880  0.05321259     0.05200
H672        H  0.32261765  0.03738648  0.05383136     0.08500
H673        H  0.34571270  0.52925240  0.03132248     0.08500
H674        H  0.36063031  0.38601659  0.08995079     0.08400
H675        H  0.37826044  0.37171798  0.06713595     0.08400
H676        H  0.33572264  0.37068928  0.07028188     0.05200
C677        C  0.11282115  0.07809807  0.95364584    -0.20600
C678        C  0.10199700  0.05849923  0.93754492    -0.07100
C679        C  0.12095323  0.03046482  0.93105683     0.13700
C680        C  0.14891928  0.02184632  0.94148111    -0.20600
C681        C  0.15832216  0.04041372  0.95812971    -0.07200
C682        C  0.14053780  0.06928165  0.96403403     0.13700
C683        C  0.15051603  0.09034513  0.98158019    -0.24000
H684        H  0.09912054  0.10007551  0.95857246     0.15000
H685        H  0.16291283  0.99970342  0.93711066     0.15000
C686        C  0.11195479  0.00914469  0.91345640    -0.23900
H687        H  0.13443606  0.11267323  0.98390980     0.05200
H688        H  0.17523624  0.10009014  0.97935285     0.08500
H689        H  0.14989031  0.07440022  0.99505671     0.08500
H690        H  0.11050027  0.02564094  0.90021891     0.08400
H691        H  0.08820861  0.49604218  0.91625975     0.08400
H692        H  0.12949875  0.48819033  0.91062959     0.05200
C693        C  0.34446000  0.06026425  0.96500167    -0.20600
C694        C  0.32708496  0.03304254  0.95706005    -0.07100
C695        C  0.33802137  0.01716770  0.93963617     0.13700
C696        C  0.36646910  0.02883053  0.93071110    -0.20600
C697        C  0.38439999  0.05593462  0.93879584    -0.07200
C698        C  0.37288004  0.07193145  0.95632948     0.13700
C699        C  0.39028153  0.10070252  0.96666916    -0.24000
H700        H  0.33599863  0.07189311  0.97853234     0.15000
H701        H  0.37477117  0.01637800  0.91740620     0.15000
C702        C  0.32060121  0.98753006  0.93035635    -0.23900
H703        H  0.37786433  0.10884293  0.98034796     0.05200
H704        H  0.39157411  0.12358137  0.95707728     0.08500
H705        H  0.41468938  0.09221472  0.97093416     0.08500
H706        H  0.31372703  0.99434451  0.91510603     0.08400
H707        H  0.29849693  0.98042307  0.93841839     0.08400
H708        H  0.33659196  0.96480072  0.92994838     0.05200
C709        C  0.17980023  0.01619449  0.69340580    -0.20600
C710        C  0.16332747  0.02046485  0.67560304    -0.07100
C711        C  0.13734190  0.99873334  0.67109983     0.13700
C712        C  0.12873097  0.47283315  0.68444491    -0.20600
C713        C  0.14547959  0.46841053  0.70211522    -0.07200
C714        C  0.17163017  0.49000492  0.70653986     0.13700
C715        C  0.19136431  0.48489661  0.72483685    -0.24000
H716        H  0.19968431  0.03294645  0.69686784     0.15000
H717        H  0.10853204  0.45630319  0.68125072     0.15000
C718        C  0.11823685  0.00341186  0.65254710    -0.23900
H719        H  0.21157010  0.50335660  0.72565449     0.05200
H720        H  0.20154336  0.45861108  0.72488467     0.08500
H721        H  0.17631256  0.48850459  0.73811520     0.08500
H722        H  0.13384018  0.99946550  0.63953299     0.08400
H723        H  0.10808607  0.02970355  0.65214758     0.08400
H724        H  0.09836708  0.48446673  0.65152440     0.05200
C725        C  0.15525548  0.26306986  0.70946332    -0.20600
C726        C  0.13547443  0.28894430  0.70185104    -0.07100
C727        C  0.12430549  0.28607497  0.68231279     0.13700
C728        C  0.13439707  0.25829009  0.67073282    -0.20600
C729        C  0.15442712  0.23251742  0.67827353    -0.07200
C730        C  0.16420224  0.23448378  0.69818934     0.13700
C731        C  0.18419134  0.20706677  0.70782190    -0.24000
H732        H  0.16339209  0.26513267  0.72453802     0.15000
H733        H  0.12659939  0.25681661  0.65556144     0.15000
C734        C  0.10156702  0.31150328  0.67322338    -0.23900
H735        H  0.18977501  0.21339573  0.72335637     0.05200
H736        H  0.20726767  0.20387405  0.70001069     0.08500
H737        H  0.17090474  0.18244647  0.70773434     0.08500
H738        H  0.11324917  0.32382008  0.66039096     0.08400
H739        H  0.09387783  0.33186277  0.68354515     0.08400
H740        H  0.07967876  0.29796701  0.66816192     0.05200
C741        C  0.35119440  0.02160886  0.68179897    -0.20600
C742        C  0.31894653  0.02414437  0.67639390    -0.07100
C743        C  0.29635286  0.50040779  0.68402122     0.13700
C744        C  0.30689997  0.47432572  0.69660508    -0.20600
C745        C  0.33925434  0.47153951  0.70189786    -0.07200
C746        C  0.36159592  0.49564796  0.69454479     0.13700
C747        C  0.39670958  0.49455514  0.69961483    -0.24000
H748        H  0.36830321  0.03987416  0.67598427     0.15000
H749        H  0.28981449  0.45614946  0.70252860     0.15000
C750        C  0.26124132  0.50290249  0.67908413    -0.23900
H751        H  0.40366560  0.01864714  0.70713326     0.05200
H752        H  0.40306834  0.47279735  0.70928374     0.08500
H753        H  0.41103623  0.49211570  0.68593005     0.08500
H754        H  0.25771044  0.99952335  0.66306400     0.08400
H755        H  0.25229347  0.02864788  0.68348469     0.08400
H756        H  0.24690820  0.48311513  0.68683820     0.05200
C757        C  0.34754700  0.24297398  0.68253849    -0.20600
C758        C  0.31484322  0.23997595  0.67827755    -0.07100
C759        C  0.29275105  0.26315719  0.68677691     0.13700
C760        C  0.30401042  0.28945719  0.69895057    -0.20600
C761        C  0.33674042  0.29288794  0.70293131    -0.07200
C762        C  0.35878669  0.26921776  0.69488424     0.13700
C763        C  0.39407737  0.27194034  0.69919264    -0.24000
H764        H  0.36430890  0.22505673  0.67598909     0.15000
H765        H  0.28724245  0.30730669  0.70556323     0.15000
C766        C  0.25725166  0.25981677  0.68330013    -0.23900
H767        H  0.40800684  0.25163348  0.69155985     0.05200
H768        H  0.39828634  0.26930816  0.71521401     0.08500
H769        H  0.40313624  0.29721869  0.69422342     0.08500
H770        H  0.24937216  0.23394979  0.68784621     0.08400
H771        H  0.25173420  0.26351131  0.66751476     0.08400
H772        H  0.24329491  0.27899200  0.69183562     0.05200
C773        C  0.18637692  0.49459270  0.31111803    -0.20600
C774        C  0.16306001  0.47976514  0.32323090    -0.07100
C775        C  0.13064278  0.99006252  0.32163884     0.13700
C776        C  0.12259585  0.01647464  0.30851972    -0.20600
C777        C  0.14625151  0.03258396  0.29712124    -0.07200
C778        C  0.17851341  0.52076682  0.29795212     0.13700
C779        C  0.20482357  0.53482145  0.28506163    -0.24000
H780        H  0.21096337  0.48574855  0.31199557     0.15000
H781        H  0.09782653  0.02438230  0.30697668     0.15000
C782        C  0.10488642  0.97289254  0.33356945    -0.23900
H783        H  0.22419101  0.54553319  0.29439663     0.05200
H784        H  0.19683493  0.05754844  0.27638794     0.08500
H785        H  0.21490421  0.51383751  0.27591275     0.08500
H786        H  0.10986811  0.97636562  0.34946683     0.08400
H787        H  0.10437207  0.94508725  0.33010970     0.08400
H788        H  0.08083679  0.98373185  0.33039215     0.05200
C789        C  0.13827449  0.26024259  0.31152190    -0.20600
C790        C  0.16884168  0.26308168  0.31973135    -0.07100
C791        C  0.19353903  0.24051297  0.31366366     0.13700
C792        C  0.18659339  0.21462518  0.30002895    -0.20600
C793        C  0.15571873  0.21110395  0.29227531    -0.07200
C794        C  0.13139437  0.23448966  0.29777370     0.13700
C795        C  0.09808715  0.23196060  0.28937428    -0.24000
H796        H  0.11967214  0.27796558  0.31606784     0.15000
H797        H  0.20519980  0.19693625  0.29543753     0.15000
C798        C  0.22727812  0.24392716  0.32131932    -0.23900
H799        H  0.08185663  0.25167725  0.29568865     0.05200
H800        H  0.08784630  0.20635335  0.29262455     0.08500
H801        H  0.09880659  0.23579500  0.27323752     0.08500
H802        H  0.22779166  0.23942810  0.33739406     0.08400
H803        H  0.23644090  0.27002693  0.31816607     0.08400
H804        H  0.24373746  0.22511786  0.31433933     0.05200
C805        C  0.33938168  0.00220499  0.32856907    -0.20600
C806        C  0.31790471  0.47682979  0.32232602    -0.07100
C807        C  0.30523028  0.47837759  0.30298845     0.13700
C808        C  0.31362326  0.00578423  0.29082327    -0.20600
C809        C  0.33516352  0.03101694  0.29705255    -0.07200
C810        C  0.34854378  0.02907468  0.31607024     0.13700
C811        C  0.37296059  0.05477822  0.32304797    -0.24000
H812        H  0.34914776  0.00094488  0.34329988     0.15000
H813        H  0.30367671  0.00744947  0.27614730     0.15000
C814        C  0.28175582  0.45234582  0.29517871    -0.23900
H815        H  0.38200510  0.04845130  0.33794320     0.05200
H816        H  0.36222744  0.08072183  0.32375777     0.08500
H817        H  0.39369089  0.05510391  0.31281716     0.08500
H818        H  0.26026494  0.45132052  0.30477455     0.08400
H819        H  0.29328872  0.42675560  0.29441986     0.08400
H820        H  0.27350665  0.45877129  0.28012059     0.05200
C821        C  0.30424511  0.26242537  0.30313707    -0.20600
C822        C  0.31690472  0.26211755  0.32225373    -0.07100
C823        C  0.33828870  0.23565244  0.32766480     0.13700
C824        C  0.34598078  0.20995523  0.31396684    -0.20600
C825        C  0.33236042  0.20962004  0.29512868    -0.07200
C826        C  0.31107001  0.23617875  0.28967339     0.13700
C827        C  0.29429832  0.23715285  0.27006535    -0.24000
H828        H  0.28763948  0.28244945  0.29889867     0.15000
H829        H  0.36262246  0.18982169  0.31797826     0.15000
C830        C  0.35364511  0.23479162  0.34768424    -0.23900
H831        H  0.26796600  0.23776874  0.27243521     0.05200
H832        H  0.29959978  0.21462294  0.26070472     0.08500
H833        H  0.30154487  0.26058833  0.26198581     0.08500
H834        H  0.33514859  0.23110091  0.35919293     0.08400
H835        H  0.36661477  0.25916595  0.35040079     0.08400
H836        H  0.37112002  0.21344745  0.34899470     0.05200
C837        C  0.07652659  0.19167980  0.55404873    -0.20600
C838        C  0.07118961  0.22593942  0.54908663    -0.07100
C839        C  0.09234430  0.25157036  0.55577318     0.13700
C840        C  0.11971449  0.24200500  0.56640425    -0.20600
C841        C  0.12650869  0.20736420  0.56990658    -0.07200
C842        C  0.10414321  0.18192427  0.56422292     0.13700
C843        C  0.10925820  0.14442725  0.56861229    -0.24000
H844        H  0.05987186  0.17231554  0.54893727     0.15000
H845        H  0.13676818  0.26138867  0.57094602     0.15000
C846        C  0.08644546  0.28871821  0.55110696    -0.23900
H847        H  0.08797955  0.12880375  0.56464031     0.05200
H848        H  0.11384379  0.14086161  0.58453978     0.08500
H849        H  0.12974679  0.13437106  0.55997999     0.08500
H850        H  0.06293390  0.29671329  0.55724201     0.08400
H851        H  0.08627872  0.29251446  0.53494954     0.08400
H852        H  0.10526613  0.30549026  0.55746688     0.05200
C853        C  0.38298698  0.25429201  0.55420727    -0.20600
C854        C  0.40458684  0.22726084  0.55095184    -0.07100
C855        C  0.39858256  0.19486066  0.55930543     0.13700
C856        C  0.37050534  0.18994506  0.57020592    -0.20600
C857        C  0.34768172  0.21612932  0.57213468    -0.07200
C858        C  0.35423839  0.24893474  0.56450650     0.13700
C859        C  0.32990889  0.27734632  0.56583948    -0.24000
H860        H  0.38762652  0.27894745  0.54748315     0.15000
H861        H  0.36527136  0.16482639  0.57616456     0.15000
C862        C  0.42047486  0.16485480  0.55546845    -0.23900
H863        H  0.33859166  0.30113498  0.55866804     0.05200
H864        H  0.32480481  0.28323066  0.58148790     0.08500
H865        H  0.30738029  0.26941552  0.55845253     0.08500
H866        H  0.44483264  0.17049470  0.56111559     0.08400
H867        H  0.42182217  0.15975064  0.53943726     0.08400
H868        H  0.41176646  0.14117904  0.56275576     0.05200
C869        C  0.11259583  0.31236141  0.44604227    -0.20600
C870        C  0.12599140  0.29158508  0.43120713    -0.07100
C871        C  0.10965327  0.26102364  0.42587567     0.13700
C872        C  0.08200807  0.25113103  0.43642993    -0.20600
C873        C  0.07010056  0.27118172  0.45192426    -0.07200
C874        C  0.08503072  0.30257828  0.45637221     0.13700
C875        C  0.07204278  0.32561309  0.47229360    -0.24000
H876        H  0.12408126  0.33629514  0.44996175     0.15000
H877        H  0.07016858  0.22715897  0.43300467     0.15000
C878        C  0.12124768  0.23835912  0.40943009    -0.23900
H879        H  0.08638472  0.34933041  0.47370990     0.05200
H880        H  0.07263657  0.31229930  0.48667346     0.08500
H881        H  0.04697331  0.33294646  0.46881258     0.08500
H882        H  0.14562506  0.22863772  0.41278443     0.08400
H883        H  0.12159393  0.25300570  0.39546640     0.08400
H884        H  0.10536593  0.21584520  0.40727426     0.05200
C885        C  0.39388528  0.25295530  0.43603565    -0.20600
C886        C  0.40030534  0.26677371  0.45470627    -0.07100
C887        C  0.37891615  0.29113197  0.46278158     0.13700
C888        C  0.35127322  0.29982630  0.45246533    -0.20600
C889        C  0.34469687  0.28664465  0.43368961    -0.07200
C890        C  0.36650278  0.26286472  0.42527528     0.13700
C891        C  0.36138367  0.24795460  0.40510768    -0.24000
H892        H  0.41027651  0.23417208  0.42995416     0.15000
H893        H  0.33479762  0.31769442  0.45930027     0.15000
C894        C  0.38432669  0.30884114  0.48225761    -0.23900
H895        H  0.38116933  0.23041224  0.40081324     0.05200
H896        H  0.36027882  0.26883014  0.39407497     0.08500
H897        H  0.33877790  0.23301328  0.40480973     0.08500
H898        H  0.40805387  0.30343047  0.48878498     0.08400
H899        H  0.36541790  0.30095614  0.49281194     0.08400
H900        H  0.38297968  0.33701034  0.48026102     0.05200
C901        C  0.11071108  0.03478559  0.57411494    -0.20600
C902        C  0.13868620  0.04341756  0.56383019    -0.07100
C903        C  0.14015881  0.03647993  0.54357379     0.13700
C904        C  0.11252587  0.02540830  0.53385328    -0.20600
C905        C  0.08214925  0.02453996  0.54314380    -0.07200
C906        C  0.08306892  0.02325046  0.56411290     0.13700
C907        C  0.05819234  0.00518324  0.57636383    -0.24000
H908        H  0.11061182  0.03630181  0.59001785     0.15000
H909        H  0.11536117  0.01729870  0.51882538     0.15000
C910        C  0.17100116  0.03989061  0.53212852    -0.23900
H911        H  0.07009745  0.98525959  0.58542240     0.05200
H912        H  0.04021122  0.99148855  0.56736155     0.08500
H913        H  0.04624610  0.02356315  0.58644701     0.08500
H914        H  0.18991807  0.02389791  0.53899208     0.08400
H915        H  0.17883282  0.06702055  0.53184803     0.08400
H916        H  0.16823013  0.03143941  0.51663383     0.05200
C917        C  0.39366613  0.06782877  0.53920483    -0.20600
C918        C  0.40996818  0.03899052  0.54607871    -0.07100
C919        C  0.39874634  0.02215508  0.56306196     0.13700
C920        C  0.37071808  0.03402498  0.57243878    -0.20600
C921        C  0.35311590  0.06187155  0.56494403    -0.07200
C922        C  0.36530638  0.07932761  0.54809877     0.13700
C923        C  0.34848830  0.10928260  0.53860550    -0.24000
H924        H  0.40243334  0.08033652  0.52604098     0.15000
H925        H  0.36198024  0.02070242  0.58531811     0.15000
C926        C  0.41564314  0.99090186  0.57078535    -0.23900
H927        H  0.36193288  0.11936046  0.52576171     0.05200
H928        H  0.34608708  0.13065511  0.54921723     0.08500
H929        H  0.32455204  0.10125486  0.53320886     0.08500
H930        H  0.44067090  0.99749639  0.57477215     0.08400
H931        H  0.41570684  0.47052821  0.55911648     0.08400
H932        H  0.40361344  0.98052930  0.58406087     0.05200
C933        C  0.11894915  0.43576213  0.44915681    -0.20600
C934        C  0.13068639  0.45379986  0.43277692    -0.07100
C935        C  0.11316543  0.48251220  0.42580831     0.13700
C936        C  0.08447962  0.49195235  0.43531093    -0.20600
C937        C  0.07345118  0.47397536  0.45176099    -0.07200
C938        C  0.09099727  0.44579873  0.45886936     0.13700
C939        C  0.08062535  0.42670391  0.47704920    -0.24000
H940        H  0.13199791  0.41387368  0.45476882     0.15000
H941        H  0.07106069  0.51404249  0.43030025     0.15000
C942        C  0.12454187  0.50378542  0.40874963    -0.23900
H943        H  0.09763490  0.40591537  0.48084736     0.05200
H944        H  0.05654761  0.41532341  0.47471970     0.08500
H945        H  0.07978033  0.44439561  0.48980521     0.08500
H946        H  0.12554731  0.98685054  0.39510042     0.08400
H947        H  0.14834382  0.51499887  0.41215167     0.08400
H948        H  0.10791468  0.52530368  0.40558684     0.05200
C949        C  0.35869645  0.48061910  0.43260284    -0.20600
C950        C  0.34836825  0.44643034  0.43362494    -0.07100
C951        C  0.36803693  0.42189461  0.44320540     0.13700
C952        C  0.39581990  0.43266584  0.45286298    -0.20600
C953        C  0.40468072  0.46709392  0.45305914    -0.07200
C954        C  0.38676072  0.49122099  0.44225545     0.13700
C955        C  0.39710154  0.52811053  0.44125337    -0.24000
H956        H  0.34420796  0.49929848  0.42489061     0.15000
H957        H  0.41019684  0.41434175  0.46094502     0.15000
C958        C  0.36034548  0.38421483  0.44335754    -0.23900
H959        H  0.38058482  0.54362682  0.43208561     0.05200
H960        H  0.42145858  0.52967447  0.43472670     0.08500
H961        H  0.39747729  0.03912292  0.45649009     0.08500
H962        H  0.35602520  0.37500477  0.42815000     0.08400
H963        H  0.33905631  0.37940034  0.45270823     0.08400
H964        H  0.38041291  0.36889038  0.44943248     0.05200
N965        N  0.44290762  0.00087360  0.49962509    -0.36900
N966        N  0.99339504  0.51674832  0.52837091    -0.57400
N967        N  0.03899096  0.50138955  0.49749305    -0.36900
N968        N  0.98867266  0.98422699  0.46933041    -0.57400
C969        C  0.42500161  0.50779591  0.51570430     0.26700
C970        C  0.42288843  0.98780227  0.48577491     0.26700
C971        C  0.05438240  0.52300184  0.50976811     0.26700
C972        C  0.05132254  0.00664262  0.47944635     0.26700
C973        C  0.46802598  0.53006815  0.53809026     0.35300
C974        C  0.02014924  0.52750879  0.53781893     0.35300
C975        C  0.46265908  0.97394107  0.45938756     0.35300
C976        C  0.01425667  0.97586811  0.45830066     0.35300
C977        C  0.39339483  0.49872681  0.51207068    -0.22200
C978        C  0.39208080  0.98606893  0.49338940    -0.22200
C979        C  0.07425944  0.54453553  0.49904455    -0.22200
C980        C  0.07345819  0.03285685  0.47996127    -0.22200
C981        C  0.47864727  0.54992376  0.55366577    -0.23200
C982        C  0.01164900  0.54880267  0.55327031    -0.23200
C983        C  0.47174750  0.95902759  0.44168696    -0.23200
C984        C  0.00476737  0.95987171  0.44112840    -0.23200
C985        C  0.43546030  0.52446702  0.53314304    -0.18600
C986        C  0.43105062  0.97736871  0.46636271    -0.18600
C987        C  0.04537839  0.98622187  0.46297820    -0.18600
C988        C  0.05164931  0.52255496  0.53048258    -0.18600
H989        H  0.37313412  0.50113731  0.52191706     0.14300
H990        H  0.37065884  0.97697709  0.48610892     0.14300
H991        H  0.08881664  0.56535136  0.50458558     0.14300
H992        H  0.08730799  0.04286066  0.46781148     0.14300
H993        H  0.46415886  0.56465990  0.56381672     0.12600
H994        H  0.02742602  0.56385991  0.56244163     0.12600
H995        H  0.45627688  0.94855170  0.43043312     0.12600
H996        H  0.01987204  0.95113818  0.42919289     0.12600
H997        H  0.46670297  0.00779036  0.49774193     0.25900
H998        H  0.02397256  0.48119754  0.50154735     0.25900
N999        N  0.43922726  0.74181293  0.50085574    -0.36900
N1000       N  0.98771982  0.73500836  0.53027233    -0.57400
N1001       N  0.03522421  0.74522251  0.49969359    -0.36900
N1002       N  0.98629913  0.75038530  0.46956611    -0.57400
C1003       C  0.42176863  0.72960354  0.51605566     0.26700
C1004       C  0.42131511  0.73809075  0.48447466     0.26700
C1005       C  0.05385341  0.73371707  0.51454168     0.26700
C1006       C  0.05303288  0.74394469  0.48308211     0.26700
C1007       C  0.46215701  0.73665743  0.54236013     0.35300
C1008       C  0.01392438  0.73718790  0.54170960     0.35300
C1009       C  0.45969546  0.76098892  0.46004994     0.35300
C1010       C  0.01160080  0.76259257  0.45933187     0.35300
C1011       C  0.39260147  0.71749014  0.50919469    -0.22200
C1012       C  0.39230936  0.72291102  0.48924838    -0.22200
C1013       C  0.08382630  0.72493246  0.50721361    -0.22200
C1014       C  0.08335115  0.73161235  0.48739868    -0.22200
C1015       C  0.47208723  0.73984268  0.56169101    -0.23200
C1016       C  0.00507144  0.73999790  0.56128655    -0.23200
C1017       C  0.46812971  0.77919270  0.44336488    -0.23200
C1018       C  0.00111409  0.78006388  0.44286139    -0.23200
C1019       C  0.43032325  0.73196830  0.53610233    -0.18600
C1020       C  0.42806085  0.75394326  0.46629269    -0.18600
C1021       C  0.04395041  0.75776505  0.46473277    -0.18600
C1022       C  0.04550069  0.73351195  0.53472896    -0.18600
H1023       H  0.37310821  0.70691749  0.51775283     0.14300
H1024       H  0.37241705  0.71782911  0.47948257     0.14300
H1025       H  0.10429880  0.71565753  0.51537895     0.14300
H1026       H  0.10331136  0.72857410  0.47738004     0.14300
H1027       H  0.45718047  0.74089330  0.57469847     0.12600
H1028       H  0.02072658  0.74136904  0.57392899     0.12600
H1029       H  0.45225195  0.79090056  0.43276576     0.12600
H1030       H  0.01568593  0.79252052  0.43182769     0.12600
H1031       H  0.45956084  0.75704961  0.50198600     0.25900
H1032       H  0.01339795  0.75773989  0.50120945     0.25900
N1033       N  0.27462322  0.80562652  0.40555573    -0.06400
N1034       N  0.30031113  0.78602298  0.40784682    -0.58500
N1035       N  0.19981335  0.83098196  0.41859581    -0.06100
N1036       N  0.17420355  0.82918914  0.42986606    -0.60600
N1037       N  0.19916882  0.80704026  0.40504260    -0.05700
N1038       N  0.17278167  0.78839362  0.40690230    -0.58500
N1039       N  0.27392137  0.82959305  0.41909493    -0.05400
N1040       N  0.29881860  0.82689969  0.43079384    -0.61000
C1041       C  0.31519684  0.79963686  0.42377991     0.95800
C1042       C  0.15734678  0.80252375  0.42254616     0.95600
N1043       N  0.20193800  0.93458870  0.40588997    -0.06600
N1044       N  0.17677705  0.95484409  0.40828399    -0.59100
N1045       N  0.27473968  0.90872464  0.41992806    -0.04700
N1046       N  0.29909338  0.91038719  0.43208645    -0.60300
N1047       N  0.27658713  0.93299899  0.40664959    -0.06600
N1048       N  0.30265071  0.95170757  0.40953411    -0.59400
N1049       N  0.20158320  0.91009432  0.41907087    -0.04300
N1050       N  0.17653011  0.91312079  0.43065812    -0.60400
Mn1051     Mn  0.23747688  0.86974826  0.41972600     1.18400
C1052       C  0.16110807  0.94111462  0.42387996     0.97900
C1053       C  0.31657136  0.93694494  0.42543542     0.98500
N1054       N  0.20204183  0.80668508  0.35865197    -0.06600
N1055       N  0.18451052  0.78057204  0.35276435    -0.62900
N1056       N  0.27523326  0.82876095  0.34555343    -0.05400
N1057       N  0.29387580  0.81899568  0.33087563    -0.63600
N1058       N  0.27450273  0.80489069  0.35918404    -0.06100
N1059       N  0.29281124  0.77880115  0.35402071    -0.63200
N1060       N  0.20289601  0.83048814  0.34497657    -0.05000
N1061       N  0.18612678  0.82056171  0.32955489    -0.63900
Mn1062     Mn  0.23755119  0.80505184  0.38234042     1.10700
C1063       C  0.17450588  0.78945839  0.33461711     0.99100
C1064       C  0.30518227  0.78792768  0.33641484     0.99200
N1065       N  0.27687414  0.93490880  0.36000991    -0.06100
N1066       N  0.29557768  0.96053513  0.35466684    -0.61500
N1067       N  0.20417704  0.91306659  0.34566962    -0.05500
N1068       N  0.18528960  0.92289376  0.33117245    -0.58200
N1069       N  0.20425047  0.93642387  0.35963980    -0.06800
N1070       N  0.18526435  0.96214686  0.35494300    -0.61100
N1071       N  0.27692750  0.91091461  0.34639088    -0.05800
N1072       N  0.29575177  0.91987781  0.33171840    -0.58300
Mn1073     Mn  0.24000711  0.93582422  0.38321921     1.20200
Mn1074     Mn  0.23978808  0.87089228  0.34532241     1.10100
Cl1075     Cl  0.23872943  0.87041182  0.38248454    -0.86200
C1076       C  0.30721560  0.95097443  0.33691143     0.96100
C1077       C  0.17303601  0.95324673  0.33729379     0.95900
N1078       N  0.27397316  0.69900692  0.59564801    -0.06400
N1079       N  0.29934582  0.71922303  0.59419252    -0.58500
N1080       N  0.20111450  0.67127454  0.58160395    -0.06100
N1081       N  0.17581936  0.67232979  0.57015355    -0.60600
N1082       N  0.19934577  0.69483065  0.59535392    -0.05700
N1083       N  0.17250131  0.71260923  0.59349779    -0.58500
N1084       N  0.27456041  0.67555391  0.58179828    -0.05400
N1085       N  0.30013672  0.67907265  0.57069684    -0.61000
C1086       C  0.31520245  0.70648833  0.57839565     0.95800
C1087       C  0.15807711  0.69794347  0.57775476     0.95600
N1088       N  0.20546551  0.56751058  0.59300654    -0.06600
N1089       N  0.18122811  0.54618819  0.59005139    -0.59100
N1090       N  0.27853587  0.59712944  0.58013710    -0.04700
N1091       N  0.30352797  0.59763286  0.56839258    -0.60300
N1092       N  0.28092357  0.57227112  0.59300839    -0.06600
N1093       N  0.30809459  0.55524352  0.59008523    -0.59400
N1094       N  0.20492923  0.59220028  0.57992250    -0.04300
N1095       N  0.18071794  0.58818473  0.56774016    -0.60400
Mn1096     Mn  0.23969720  0.63407346  0.58032687     1.18400
C1097       C  0.16610048  0.55948325  0.57416907     0.97900
C1098       C  0.32198235  0.57148768  0.57452966     0.98500
N1099       N  0.19986039  0.69356636  0.64151095    -0.06600
N1100       N  0.17924631  0.71760309  0.64658650    -0.62900
N1101       N  0.27381343  0.67341972  0.65529291    -0.05400
N1102       N  0.29302132  0.68289512  0.66974507    -0.63600
N1103       N  0.27266655  0.69749216  0.64179866    -0.06100
N1104       N  0.29126876  0.72336215  0.64672648    -0.63200
N1105       N  0.20090945  0.66947035  0.65497930    -0.05000
N1106       N  0.18106564  0.67703642  0.66948665    -0.63900
Mn1107     Mn  0.23640364  0.69730688  0.61844090     1.10700
C1108       C  0.16764987  0.70725803  0.66414922     0.99100
C1109       C  0.30423151  0.71391326  0.66405893     0.99200
N1110       N  0.27884420  0.56815422  0.63967799    -0.06100
N1111       N  0.29811805  0.54274594  0.64447778    -0.61500
N1112       N  0.20506962  0.58762554  0.65359004    -0.05500
N1113       N  0.18597305  0.57737741  0.66786582    -0.58200
N1114       N  0.20621817  0.56441303  0.63953809    -0.06800
N1115       N  0.18767780  0.53816210  0.64406090    -0.61100
N1116       N  0.27751122  0.59086753  0.65399612    -0.05800
N1117       N  0.29578058  0.58089290  0.66876994    -0.58300
Mn1118     Mn  0.24296932  0.56696030  0.61609063     1.20200
Mn1119     Mn  0.23937964  0.63036685  0.65487634     1.10100
Cl1120     Cl  0.23962524  0.63210141  0.61759391    -0.86200
C1121       C  0.30896470  0.55106034  0.66255316     0.96100
C1122       C  0.17479985  0.54669312  0.66167627     0.95900
N1123       N  0.28980983  0.49681962  0.00189012    -0.36900
N1124       N  0.24194179  0.51805766  0.97390759    -0.57400
N1125       N  0.19346407  0.50262826  0.00351838    -0.36900
N1126       N  0.24159998  0.97895771  0.03074168    -0.57400
C1127       C  0.30729730  0.49886988  0.98519092     0.26700
C1128       C  0.30732335  0.97863082  0.01497362     0.26700
C1129       C  0.17529460  0.50746507  0.98732776     0.26700
C1130       C  0.17501828  0.98641968  0.01692961     0.26700
C1131       C  0.26826449  0.53082155  0.96498541     0.35300
C1132       C  0.21649341  0.53401742  0.96583814     0.35300
C1133       C  0.26774237  0.97504565  0.04214081     0.35300
C1134       C  0.21600406  0.97709694  0.04280232     0.35300
C1135       C  0.33599588  0.48149366  0.98757114    -0.22200
C1136       C  0.33610147  0.96880559  0.00642726    -0.22200
C1137       C  0.14487569  0.49425010  0.99048898    -0.22200
C1138       C  0.14477117  0.98085099  0.00911931    -0.22200
C1139       C  0.25954817  0.55471506  0.95095108    -0.23200
C1140       C  0.22657794  0.55670282  0.95146535    -0.23200
C1141       C  0.25874604  0.97010140  0.06153924    -0.23200
C1142       C  0.22583142  0.97123623  0.06194023    -0.23200
C1143       C  0.29976991  0.51966905  0.96889756    -0.18600
C1144       C  0.29939556  0.97369255  0.03495063    -0.18600
C1145       C  0.18391310  0.97861234  0.03646846    -0.18600
C1146       C  0.18434281  0.52673413  0.97065438    -0.18600
H1147       H  0.35536753  0.47923198  0.97706423     0.14300
H1148       H  0.35543862  0.95464154  0.01321373     0.14300
H1149       H  0.12465623  0.49487716  0.98055382     0.14300
H1150       H  0.12442492  0.96899370  0.01625508     0.14300
H1151       H  0.27525704  0.56900960  0.94132532     0.12600
H1152       H  0.21173681  0.57290853  0.94233838     0.12600
H1153       H  0.27420922  0.96561508  0.07402405     0.12600
H1154       H  0.21086477  0.96790051  0.07478884     0.12600
H1155       H  0.26968619  0.51143229  0.00522368     0.25900
H1156       H  0.21562568  0.51385634  0.00614792     0.25900
N1157       N  0.29022019  0.74225714  0.00055226    -0.36900
N1158       N  0.24278413  0.74823795  0.03184314    -0.57400
N1159       N  0.19569777  0.74138927  0.00098597    -0.36900
N1160       N  0.24307255  0.73505409  0.97069571    -0.57400
C1161       C  0.30721085  0.73683943  0.01709764     0.26700
C1162       C  0.30795593  0.73026497  0.98543100     0.26700
C1163       C  0.17801688  0.73870938  0.01753423     0.26700
C1164       C  0.17783183  0.72889902  0.98607238     0.26700
C1165       C  0.26892447  0.76127552  0.04071617     0.35300
C1166       C  0.21719559  0.76248184  0.04078965     0.35300
C1167       C  0.26870093  0.73910162  0.95894291     0.35300
C1168       C  0.21704815  0.73726412  0.95916315     0.35300
C1169       C  0.33586581  0.72066217  0.01252690    -0.22200
C1170       C  0.33632049  0.71641644  0.99247410    -0.22200
C1171       C  0.14876131  0.72372818  0.01322338    -0.22200
C1172       C  0.14867185  0.71738606  0.99334143    -0.22200
C1173       C  0.26003390  0.78341806  0.05569227    -0.23200
C1174       C  0.22699800  0.78409861  0.05578344    -0.23200
C1175       C  0.25903986  0.74381748  0.93966689    -0.23200
C1176       C  0.22605249  0.74251448  0.93979865    -0.23200
C1177       C  0.30042351  0.75275911  0.03520960    -0.18600
C1178       C  0.30036677  0.73464815  0.96540396    -0.18600
C1179       C  0.18573649  0.73136190  0.96591501    -0.18600
C1180       C  0.18534463  0.75569243  0.03527454    -0.18600
H1181       H  0.35513759  0.71436423  0.02252179     0.14300
H1182       H  0.35583838  0.70564973  0.98398562     0.14300
H1183       H  0.12893293  0.71957492  0.02320021     0.14300
H1184       H  0.12878317  0.70701689  0.98505981     0.14300
H1185       H  0.27567132  0.79782946  0.06531200     0.12600
H1186       H  0.21199570  0.79919780  0.06546461     0.12600
H1187       H  0.27414753  0.74679438  0.92685187     0.12600
H1188       H  0.21055072  0.74437442  0.92711144     0.12600
H1189       H  0.27048848  0.75846361  0.99938781     0.25900
H1190       H  0.21616454  0.75636362  0.99953954     0.25900
N1191       N  0.45474024  0.69755250  0.90570511    -0.06400
N1192       N  0.42823855  0.71606885  0.90646578    -0.58500
N1193       N  0.52848670  0.67557768  0.92114743    -0.06100
N1194       N  0.05339569  0.67884035  0.93281686    -0.60600
N1195       N  0.52912154  0.69885325  0.90727709    -0.05700
N1196       N  0.05464609  0.71863128  0.90921809    -0.58500
N1197       N  0.45480284  0.67449366  0.91972309    -0.05400
N1198       N  0.42842637  0.67643106  0.93023856    -0.61000
C1199       C  0.41216793  0.70230496  0.92180093     0.95800
C1200       C  0.06932658  0.70593390  0.92536535     0.95600
N1201       N  0.52971276  0.57118095  0.91025012    -0.06600
N1202       N  0.05590362  0.55267013  0.91310093    -0.59100
N1203       N  0.45550702  0.59626332  0.92217977    -0.04700
N1204       N  0.43138095  0.59468004  0.93452561    -0.60300
N1205       N  0.45432552  0.57108801  0.90938455    -0.06600
N1206       N  0.42884331  0.55166840  0.91302636    -0.59400
N1207       N  0.52876646  0.59652638  0.92294853    -0.04300
N1208       N  0.05383384  0.59576591  0.93463325    -0.60400
Mn1209     Mn  0.49197321  0.63575463  0.92203070     1.18400
C1210       C  0.07075244  0.56832569  0.92843887     0.97900
C1211       C  0.41473108  0.56688705  0.92890559     0.98500
N1212       N  0.03102652  0.69655108  0.86156427    -0.06600
N1213       N  0.04870630  0.72299562  0.85649988    -0.62900
N1214       N  0.45972091  0.67199178  0.84603079    -0.05400
N1215       N  0.44226419  0.68090753  0.83067156    -0.63600
N1216       N  0.45843261  0.69610275  0.85954401    -0.06100
N1217       N  0.43989139  0.72146947  0.85369580    -0.63200
N1218       N  0.03209829  0.67267250  0.84791293    -0.05000
N1219       N  0.05009998  0.68319569  0.83310763    -0.63900
Mn1220     Mn  0.49322763  0.69808062  0.88369264     1.10700
C1221       C  0.06055150  0.71462761  0.83870301     0.99100
C1222       C  0.42979188  0.71179561  0.83566569     0.99200
N1223       N  0.45841028  0.56645798  0.86175655    -0.06100
N1224       N  0.44058873  0.54035649  0.85584951    -0.61500
N1225       N  0.03235335  0.58949049  0.84985073    -0.05500
N1226       N  0.05148225  0.57868962  0.83565772    -0.58200
N1227       N  0.03088974  0.56635637  0.86390018    -0.06800
N1228       N  0.04912190  0.53981422  0.85943929    -0.61100
N1229       N  0.45989901  0.58979993  0.84779421    -0.05800
N1230       N  0.44305088  0.58000651  0.83240989    -0.58300
Mn1231     Mn  0.49303769  0.56752640  0.88654083     1.20200
Mn1232     Mn  0.49616598  0.63088212  0.84760565     1.10100
Cl1233     Cl  0.49352312  0.63291272  0.88482967    -0.86200
C1234       C  0.43097319  0.54921291  0.83751101     0.96100
C1235       C  0.06197438  0.54765236  0.84175115     0.95900
N1236       N  0.09007744  0.88305016  0.77682208    -0.36900
N1237       N  0.11153335  0.93403119  0.74918788    -0.57400
N1238       N  0.12506439  0.88020210  0.72020184    -0.36900
N1239       N  0.10604172  0.82937285  0.74842221    -0.57400
C1240       C  0.09190458  0.91088979  0.78866581     0.26700
C1241       C  0.09036775  0.85506068  0.78852076     0.26700
C1242       C  0.14016003  0.90723402  0.71195556     0.26700
C1243       C  0.13639953  0.85145498  0.71142470     0.26700
C1244       C  0.09803830  0.95496514  0.76274089     0.35300
C1245       C  0.11724982  0.95341698  0.73315229     0.35300
C1246       C  0.09133505  0.81052494  0.76235616     0.35300
C1247       C  0.10832077  0.80912835  0.73237278     0.35300
C1248       C  0.09275251  0.90044207  0.80811782    -0.22200
C1249       C  0.09181121  0.86522311  0.80802232    -0.22200
C1250       C  0.16111666  0.89559623  0.69757273    -0.22200
C1251       C  0.15878579  0.86036212  0.69726502    -0.22200
C1252       C  0.09510304  0.98779750  0.75526917    -0.23200
C1253       C  0.10737499  0.98685414  0.73654418    -0.23200
C1254       C  0.08404450  0.77824601  0.75513039    -0.23200
C1255       C  0.09472635  0.77738872  0.73609249    -0.23200
C1256       C  0.09162439  0.94548687  0.78240826    -0.18600
C1257       C  0.08777528  0.82067670  0.78211030    -0.18600
C1258       C  0.12569443  0.81764903  0.71525617    -0.18600
C1259       C  0.13391572  0.94214168  0.71621581    -0.18600
H1260       H  0.09407174  0.91650620  0.82106301     0.14300
H1261       H  0.09211114  0.84895333  0.82087458     0.14300
H1262       H  0.17633391  0.91092516  0.68817511     0.14300
H1263       H  0.17185217  0.84329693  0.68759820     0.14300
H1264       H  0.08606322  0.51015771  0.76269228     0.12600
H1265       H  0.10964103  0.50837447  0.72669770     0.12600
H1266       H  0.07300999  0.75720442  0.76294812     0.12600
H1267       H  0.09344671  0.75555584  0.72630691     0.12600
H1268       H  0.08562575  0.88319663  0.76180022     0.25900
H1269       H  0.10558462  0.88165003  0.72970002     0.25900
N1270       N  0.36758272  0.83005202  0.75006390    -0.36900
N1271       N  0.38259172  0.88213204  0.77886378    -0.57400
N1272       N  0.36911236  0.93453172  0.74946002    -0.36900
N1273       N  0.35161375  0.88227602  0.72128323    -0.57400
C1274       C  0.36899462  0.81110866  0.76666541     0.26700
C1275       C  0.35198406  0.81108547  0.73648089     0.26700
C1276       C  0.37069199  0.95356301  0.76606332     0.26700
C1277       C  0.35389902  0.95367161  0.73577495     0.26700
C1278       C  0.39437639  0.85436743  0.78827718     0.35300
C1279       C  0.39493843  0.90988416  0.78800557     0.35300
C1280       C  0.34888305  0.85431824  0.70969211     0.35300
C1281       C  0.34955678  0.90983642  0.70936998     0.35300
C1282       C  0.35412811  0.77981690  0.76360041    -0.22200
C1283       C  0.34341855  0.77977373  0.74453853    -0.22200
C1284       C  0.35643700  0.98514935  0.76288344    -0.22200
C1285       C  0.34583679  0.98522802  0.74376295    -0.22200
C1286       C  0.41407610  0.86451019  0.80358097    -0.23200
C1287       C  0.41447713  0.89972701  0.80339150    -0.23200
C1288       C  0.34488468  0.86412812  0.69028518    -0.23200
C1289       C  0.34533799  0.89935813  0.69007711    -0.23200
C1290       C  0.38577615  0.82014647  0.78392110    -0.18600
C1291       C  0.34706205  0.82028875  0.71665393    -0.18600
C1292       C  0.34864163  0.94418164  0.71597119    -0.18600
C1293       C  0.38687688  0.94416366  0.78348666    -0.18600
H1294       H  0.35170173  0.75895253  0.77394291     0.14300
H1295       H  0.33111312  0.75882924  0.73734962     0.14300
H1296       H  0.35416665  0.50603031  0.77328534     0.14300
H1297       H  0.33364611  0.50619426  0.73659911     0.14300
H1298       H  0.42655113  0.84827190  0.81392625     0.12600
H1299       H  0.42727886  0.91600162  0.81359484     0.12600
H1300       H  0.34127160  0.84765019  0.67767814     0.12600
H1301       H  0.34216124  0.91540102  0.67727497     0.12600
H1302       H  0.38006346  0.85260291  0.74740215     0.25900
H1303       H  0.38113971  0.91160424  0.74695799     0.25900
N1304       N  0.10919320  0.61866392  0.21795735    -0.36900
N1305       N  0.11747720  0.56753204  0.24878106    -0.57400
N1306       N  0.14130559  0.62027831  0.27511786    -0.36900
N1307       N  0.12998267  0.67134884  0.24508201    -0.57400
C1308       C  0.09381303  0.59151623  0.21000766     0.26700
C1309       C  0.09826137  0.64712039  0.20877705     0.26700
C1310       C  0.13931595  0.59372360  0.28778391     0.26700
C1311       C  0.14497474  0.64916471  0.28589870     0.26700
C1312       C  0.11167844  0.54650860  0.23340802     0.35300
C1313       C  0.12786780  0.54729170  0.26355657     0.35300
C1314       C  0.12850117  0.68981539  0.22839373     0.35300
C1315       C  0.14612409  0.69064466  0.25819813     0.35300
C1316       C  0.07337111  0.60262995  0.19531467    -0.22200
C1317       C  0.07583081  0.63780372  0.19471901    -0.22200
C1318       C  0.14254902  0.60571016  0.30685378    -0.22200
C1319       C  0.14583108  0.64076027  0.30568291    -0.22200
C1320       C  0.11771614  0.51278470  0.23857714    -0.23200
C1321       C  0.12783734  0.51326936  0.25769536    -0.23200
C1322       C  0.14414292  0.72085728  0.23082251    -0.23200
C1323       C  0.15528612  0.72140766  0.24976695    -0.23200
C1324       C  0.09875175  0.55690303  0.21522375    -0.18600
C1325       C  0.10954577  0.68091194  0.21203464    -0.18600
C1326       C  0.14928129  0.68257034  0.27825466    -0.18600
C1327       C  0.13683151  0.55880657  0.28244842    -0.18600
H1328       H  0.05806165  0.58703521  0.18610874     0.14300
H1329       H  0.06289166  0.65451093  0.18484486     0.14300
H1330       H  0.14267155  0.59074685  0.32022152     0.14300
H1331       H  0.14906950  0.65797719  0.31799832     0.14300
H1332       H  0.11488589  0.99025476  0.22956154     0.12600
H1333       H  0.13454050  0.99114887  0.26626075     0.12600
H1334       H  0.14635502  0.74138774  0.22024458     0.12600
H1335       H  0.16780671  0.74243088  0.25673926     0.12600
H1336       H  0.12841964  0.61731919  0.22755249     0.25900
H1337       H  0.14361385  0.61830293  0.26005246     0.25900
N1338       N  0.36184267  0.67090533  0.24784269    -0.36900
N1339       N  0.34676490  0.61979835  0.27708641    -0.57400
N1340       N  0.36423359  0.56676484  0.24905776    -0.36900
N1341       N  0.38115253  0.61811389  0.22032276    -0.57400
C1342       C  0.35970487  0.69021389  0.26430095     0.26700
C1343       C  0.37802694  0.68950705  0.23437874     0.26700
C1344       C  0.36190505  0.54831352  0.26578982     0.26700
C1345       C  0.38018672  0.54731218  0.23580233     0.26700
C1346       C  0.33305427  0.64753257  0.28549451     0.35300
C1347       C  0.33434682  0.59213283  0.28618624     0.35300
C1348       C  0.38187185  0.64542782  0.20819852     0.35300
C1349       C  0.38328235  0.59000232  0.20882319     0.35300
C1350       C  0.37480426  0.72137760  0.26131484    -0.22200
C1351       C  0.38626405  0.72100625  0.24236971    -0.22200
C1352       C  0.37647529  0.51668768  0.26311566    -0.22200
C1353       C  0.38796545  0.51603573  0.24417117    -0.22200
C1354       C  0.31180030  0.63751709  0.30003532    -0.23200
C1355       C  0.31252618  0.60229204  0.30042613    -0.23200
C1356       C  0.38471527  0.63469800  0.18886158    -0.23200
C1357       C  0.38548350  0.59948500  0.18924803    -0.23200
C1358       C  0.34157394  0.68164337  0.28110917    -0.18600
C1359       C  0.38314053  0.67976327  0.21464047    -0.18600
C1360       C  0.38593625  0.55617473  0.21597798    -0.18600
C1361       C  0.34446430  0.55813489  0.28273284    -0.18600
H1362       H  0.37661501  0.74253270  0.27154741     0.14300
H1363       H  0.39870318  0.74185291  0.23521237     0.14300
H1364       H  0.37777623  0.99590983  0.27370964     0.14300
H1365       H  0.40012153  0.99469309  0.23742199     0.14300
H1366       H  0.29757517  0.65387381  0.30948779     0.12600
H1367       H  0.29903941  0.58603830  0.31029000     0.12600
H1368       H  0.38669554  0.65057312  0.17590096     0.12600
H1369       H  0.38816620  0.58281077  0.17663393     0.12600
H1370       H  0.34924648  0.64843271  0.24508309     0.25900
H1371       H  0.35212432  0.58941633  0.24610081     0.25900
N1372       N  0.45507618  0.80502945  0.09240272    -0.06400
N1373       N  0.42992525  0.78528884  0.08884911    -0.58500
N1374       N  0.52936224  0.82993995  0.08045190    -0.06100
N1375       N  0.05437221  0.82770104  0.06879863    -0.60600
N1376       N  0.52976268  0.80547437  0.09365464    -0.05700
N1377       N  0.05549705  0.78603025  0.09122275    -0.58500
N1378       N  0.45658902  0.82959118  0.07930886    -0.05400
N1379       N  0.43301244  0.82720228  0.06668149    -0.61000
C1380       C  0.41653619  0.79949794  0.07257452     0.95800
C1381       C  0.07068355  0.80037209  0.07561538     0.95600
N1382       N  0.52911206  0.93254730  0.09487247    -0.06600
N1383       N  0.05559449  0.95109693  0.09364723    -0.59100
N1384       N  0.45507934  0.90807352  0.08041473    -0.04700
N1385       N  0.42900907  0.90891024  0.06955982    -0.60300
N1386       N  0.45416959  0.93201443  0.09397524    -0.06600
N1387       N  0.42737494  0.94993286  0.09255199    -0.59400
N1388       N  0.52908536  0.90868028  0.08127441    -0.04300
N1389       N  0.05528668  0.91022515  0.07059037    -0.60400
Mn1390     Mn  0.49255831  0.86922042  0.07978534     1.18400
C1391       C  0.07173833  0.93651375  0.07847728     1.02300
C1392       C  0.41194000  0.93495922  0.07731955     0.98500
N1393       N  0.02676641  0.80359105  0.14004141    -0.06600
N1394       N  0.04689053  0.77889515  0.14478081    -0.62900
N1395       N  0.45315566  0.82630385  0.15291949    -0.05400
N1396       N  0.43347474  0.81668611  0.16707557    -0.63600
N1397       N  0.45396391  0.80286603  0.13899320    -0.06100
N1398       N  0.43477394  0.77719078  0.14346823    -0.63200
N1399       N  0.02601183  0.82708598  0.15392460    -0.05000
N1400       N  0.04555670  0.81858337  0.16833766    -0.63900
Mn1401     Mn  0.49135889  0.80302953  0.11615148     1.10700
C1402       C  0.05854545  0.78845087  0.16250150     0.99100
C1403       C  0.42172883  0.78616879  0.16092324     0.99200
N1404       N  0.45338272  0.93244763  0.13987192    -0.06100
N1405       N  0.43408840  0.95793360  0.14448255    -0.61500
N1406       N  0.02538709  0.90903794  0.15467467    -0.05500
N1407       N  0.04394957  0.91815911  0.16947643    -0.58200
N1408       N  0.02603569  0.93269031  0.14093361    -0.06800
N1409       N  0.04516459  0.95799980  0.14606836    -0.61100
N1410       N  0.45261052  0.90872810  0.15356832    -0.05800
N1411       N  0.43286612  0.91808500  0.16779923    -0.58300
Mn1412     Mn  0.49073645  0.93351618  0.11721809     1.20200
Mn1413     Mn  0.48921894  0.86772698  0.15422434     1.10100
Cl1414     Cl  0.49095044  0.86830901  0.11695774    -0.86200
C1415       C  0.42102421  0.94869838  0.16183737     0.96100
C1416       C  0.05642248  0.94863406  0.16384925     0.95900
C1417       C  0.43475991  0.99912231  0.18196054    -0.20600
C1418       C  0.41157851  0.97520697  0.17610245    -0.07100
C1419       C  0.37987806  0.47776539  0.18326068     0.13700
C1420       C  0.37215818  0.50456503  0.19622647    -0.20600
C1421       C  0.39540657  0.52846691  0.20212637    -0.07200
C1422       C  0.42715604  0.52533406  0.19514189     0.13700
C1423       C  0.45326880  0.54935396  0.20180602    -0.24000
H1424       H  0.45877777  0.99724665  0.17603222     0.15000
H1425       H  0.34789195  0.50705015  0.20174179     0.15000
C1426       C  0.35436238  0.45293201  0.17686839    -0.23900
H1427       H  0.47705685  0.04247926  0.19543532     0.05200
H1428       H  0.45537677  0.54844810  0.21804967     0.08500
H1429       H  0.44775275  0.57593058  0.19719574     0.08500
H1430       H  0.36163250  0.92652764  0.18120964     0.08400
H1431       H  0.35158923  0.95420984  0.16082141     0.08400
H1432       H  0.33084734  0.45887908  0.18373480     0.05200
C1433       C  0.42456172  0.71609448  0.19922212    -0.20600
C1434       C  0.39222849  0.70676152  0.20039086    -0.07100
C1435       C  0.36929375  0.72405420  0.18875795     0.13700
C1436       C  0.37946497  0.75016396  0.17603190    -0.20600
C1437       C  0.41178759  0.75963900  0.17501078    -0.07200
C1438       C  0.43460046  0.74256308  0.18680381     0.13700
C1439       C  0.46951424  0.75233046  0.18637852    -0.24000
H1440       H  0.44190285  0.70288961  0.20833046     0.15000
H1441       H  0.36207257  0.76324217  0.16689930     0.15000
C1442       C  0.33407304  0.71565931  0.18946766    -0.23900
H1443       H  0.48402942  0.73637291  0.19652738     0.05200
H1444       H  0.47209784  0.77946880  0.19094094     0.08500
H1445       H  0.47930128  0.74904192  0.17132757     0.08500
H1446       H  0.32039823  0.73874615  0.19404048     0.08400
H1447       H  0.32835961  0.69476026  0.19989576     0.08400
H1448       H  0.32588625  0.70762449  0.17464880     0.05200
C1449       C  0.05949953  0.01233734  0.20586927    -0.20600
C1450       C  0.08804655  0.52969953  0.20148526    -0.07100
C1451       C  0.10680440  0.51933522  0.18521909     0.13700
C1452       C  0.09604862  0.49229745  0.17336559    -0.20600
C1453       C  0.06778038  0.97470201  0.17786168    -0.07200
C1454       C  0.04938093  0.98454097  0.19441154     0.13700
C1455       C  0.01885344  0.96631211  0.19990894    -0.24000
H1456       H  0.04553775  0.02013281  0.21855427     0.15000
H1457       H  0.10994109  0.48482482  0.16058156     0.15000
C1458       C  0.13847238  0.53568162  0.18020037    -0.23900
H1459       H  0.00652188  0.97890007  0.21246527     0.05200
H1460       H  0.02431607  0.93955122  0.20423130     0.08500
H1461       H  0.00218912  0.96611569  0.18725395     0.08500
H1462       H  0.14529277  0.55642443  0.19050448     0.08400
H1463       H  0.13730811  0.54668779  0.16519441     0.08400
H1464       H  0.15763896  0.51594217  0.18058444     0.05200
C1465       C  0.09273697  0.73739729  0.16746380    -0.20600
C1466       C  0.07390668  0.76341514  0.17591919    -0.07100
C1467       C  0.06829613  0.76293086  0.19647626     0.13700
C1468       C  0.07997541  0.73544455  0.20758921    -0.20600
C1469       C  0.09836551  0.70922901  0.19904986    -0.07200
C1470       C  0.10569071  0.71082729  0.17880490     0.13700
C1471       C  0.12728636  0.68530077  0.16872760    -0.24000
H1472       H  0.09759316  0.73788027  0.15181254     0.15000
H1473       H  0.07475725  0.73430831  0.22318323     0.15000
C1474       C  0.04965102  0.79056049  0.20696529    -0.23900
H1475       H  0.11352674  0.67124889  0.15732917     0.05200
H1476       H  0.13785172  0.66640308  0.17896761     0.08500
H1477       H  0.14742635  0.69904345  0.16156199     0.08500
H1478       H  0.02505042  0.79221675  0.20097162     0.08400
H1479       H  0.56202633  0.81555336  0.20525172     0.08400
H1480       H  0.54754660  0.78545695  0.22295860     0.05200
C1481       C  0.05479223  0.97223221  0.80680385    -0.20600
C1482       C  0.08477434  0.97266996  0.79740906    -0.07100
C1483       C  0.10765312  0.99766626  0.80311402     0.13700
C1484       C  0.09955342  0.02190293  0.81760749    -0.20600
C1485       C  0.06988766  0.52068079  0.82723327    -0.07200
C1486       C  0.04726174  0.49536982  0.82181891     0.13700
C1487       C  0.01506936  0.49272185  0.83181818    -0.24000
H1488       H  0.03736235  0.45297370  0.80243744     0.15000
H1489       H  0.11679466  0.04142728  0.82168465     0.15000
C1490       C  0.14102782  0.99917242  0.79466737    -0.23900
H1491       H  0.99945445  0.47330367  0.82470626     0.05200
H1492       H  0.00249169  0.51770899  0.83134857     0.08500
H1493       H  0.01837863  0.48507102  0.84737185     0.08500
H1494       H  0.14633602  0.97797374  0.78435181     0.08400
H1495       H  0.15879661  0.99758042  0.80675607     0.08400
H1496       H  0.14435289  0.02382478  0.78681483     0.05200
C1497       C  0.09758458  0.74343219  0.81565067    -0.20600
C1498       C  0.06713081  0.74169282  0.82420329    -0.07100
C1499       C  0.04359555  0.76642376  0.81924150     0.13700
C1500       C  0.05095024  0.79168787  0.80536561    -0.20600
C1501       C  0.08147870  0.79357585  0.79691639    -0.07200
C1502       C  0.10530186  0.76962883  0.80236338     0.13700
C1503       C  0.13907759  0.77239217  0.79467851    -0.24000
H1504       H  0.11559127  0.72476611  0.81977386     0.15000
H1505       H  0.03295725  0.81036030  0.80121194     0.15000
C1506       C  0.01073841  0.76645615  0.82852495    -0.23900
H1507       H  0.15490033  0.75242154  0.80105380     0.05200
H1508       H  0.14911065  0.79784402  0.79858450     0.08500
H1509       H  0.13944529  0.76928249  0.77849275     0.08500
H1510       H  0.01266530  0.77259444  0.84439420     0.08400
H1511       H  0.99939101  0.74098815  0.82677848     0.08400
H1512       H  0.99471086  0.78586781  0.82177020     0.05200
C1513       C  0.39462709  0.00132593  0.82881154    -0.20600
C1514       C  0.41887418  0.52387294  0.82296264    -0.07100
C1515       C  0.43162802  0.52101627  0.80364852     0.13700
C1516       C  0.42073056  0.99472791  0.79122910    -0.20600
C1517       C  0.39680732  0.97191698  0.79728415    -0.07200
C1518       C  0.38277495  0.97599150  0.81602755     0.13700
C1519       C  0.35466391  0.95439800  0.82228252    -0.24000
H1520       H  0.38444249  0.00391392  0.84339158     0.15000
H1521       H  0.43088814  0.99182876  0.77665281     0.15000
C1522       C  0.45692504  0.54504040  0.79585625    -0.23900
H1523       H  0.34574263  0.96190924  0.83704825     0.05200
H1524       H  0.36153057  0.92699405  0.82288103     0.08500
H1525       H  0.33474630  0.95764721  0.81164001     0.08500
H1526       H  0.47836654  0.54468761  0.80541615     0.08400
H1527       H  0.44718978  0.57144977  0.79505002     0.08400
H1528       H  0.46480009  0.53781746  0.78081645     0.05200
C1529       C  0.41711915  0.76713738  0.79013487    -0.20600
C1530       C  0.39575986  0.79191742  0.79740664    -0.07100
C1531       C  0.38405321  0.78870887  0.81682146     0.13700
C1532       C  0.39530924  0.76189552  0.82868047    -0.20600
C1533       C  0.41688043  0.73720524  0.82149218    -0.07200
C1534       C  0.42753316  0.73959899  0.80175358     0.13700
C1535       C  0.45039495  0.71401886  0.79280672    -0.24000
H1536       H  0.42572367  0.76947569  0.77516404     0.15000
H1537       H  0.38691918  0.76011578  0.84372802     0.15000
C1538       C  0.35937509  0.81262405  0.82543333    -0.23900
H1539       H  0.45661642  0.72066667  0.77741086     0.05200
H1540       H  0.43921756  0.68824007  0.79261201     0.08500
H1541       H  0.47302971  0.71317982  0.80128320     0.08500
H1542       H  0.33834525  0.79759228  0.83047642     0.08400
H1543       H  0.35054941  0.83185185  0.81479146     0.08400
H1544       H  0.36981166  0.82635459  0.83820701     0.05200
C1545       C  0.15176354  0.75746642  0.06570799    -0.20600
C1546       C  0.15822468  0.77001486  0.04680509    -0.07100
C1547       C  0.13703250  0.79388224  0.03822133     0.13700
C1548       C  0.10851209  0.80194734  0.04783807    -0.20600
C1549       C  0.10122563  0.78882230  0.06652614    -0.07200
C1550       C  0.12374531  0.76712000  0.07588960     0.13700
C1551       C  0.11888650  0.75455683  0.09657711    -0.24000
H1552       H  0.16845463  0.73965494  0.07235388     0.15000
H1553       H  0.09200059  0.81925120  0.04060349     0.15000
C1554       C  0.14382225  0.81168161  0.01898497    -0.23900
H1555       H  0.13965666  0.73927545  0.10178392     0.05200
H1556       H  0.09735189  0.73796391  0.09732634     0.08500
H1557       H  0.11600950  0.77673552  0.10666953     0.08500
H1558       H  0.12582197  0.80376604  0.00787154     0.08400
H1559       H  0.16808944  0.80628702  0.01314238     0.08400
H1560       H  0.14222770  0.83984023  0.02113787     0.05200
C1561       C  0.34753048  0.79012271  0.03658364    -0.20600
C1562       C  0.32813106  0.76638452  0.04631054    -0.07100
C1563       C  0.33747820  0.75365518  0.06479210     0.13700
C1564       C  0.36626716  0.76524544  0.07316447    -0.20600
C1565       C  0.38625363  0.78842447  0.06317426    -0.07200
C1566       C  0.37680442  0.80065079  0.04437037     0.13700
C1567       C  0.39764285  0.82328041  0.03166117    -0.24000
H1568       H  0.34020253  0.79929538  0.02223712     0.15000
H1569       H  0.37339852  0.75570851  0.08744166     0.15000
C1570       C  0.31787769  0.72696403  0.07527276    -0.23900
H1571       H  0.38698975  0.82758630  0.01692024     0.05200
H1572       H  0.42134184  0.81097103  0.02934795     0.08500
H1573       H  0.40069059  0.84887635  0.03844837     0.08500
H1574       H  0.31540258  0.70392131  0.06581677     0.08400
H1575       H  0.29374649  0.73719997  0.07875345     0.08400
H1576       H  0.32924504  0.71902678  0.08928833     0.05200
C1577       C  0.13939054  0.75371535  0.94724554    -0.20600
C1578       C  0.15979373  0.72616799  0.95149523    -0.07100
C1579       C  0.15258295  0.69312911  0.94445202     0.13700
C1580       C  0.12352431  0.68774950  0.93474251    -0.20600
C1581       C  0.10190912  0.71477253  0.93173115    -0.07200
C1582       C  0.11043596  0.74841422  0.93724297     0.13700
C1583       C  0.08824202  0.77820675  0.93376318    -0.24000
H1584       H  0.14535588  0.77901595  0.95271504     0.15000
H1585       H  0.11700755  0.66204016  0.93020451     0.15000
C1586       C  0.17478356  0.66335832  0.94807976    -0.23900
H1587       H  0.09846641  0.80257142  0.93941349     0.05200
H1588       H  0.06503678  0.77370452  0.94131593     0.08500
H1589       H  0.08400253  0.78122829  0.91776811     0.08500
H1590       H  0.17804143  0.65962113  0.96410578     0.08400
H1591       H  0.19843489  0.66853751  0.94122524     0.08400
H1592       H  0.16526552  0.63916261  0.94176538     0.05200
C1593       C  0.37839627  0.74564171  0.93781732    -0.20600
C1594       C  0.38078783  0.71347884  0.92884268    -0.07100
C1595       C  0.35477349  0.69042252  0.92952132     0.13700
C1596       C  0.32759119  0.69919015  0.94044278    -0.20600
C1597       C  0.32625355  0.73015712  0.95080659    -0.07200
C1598       C  0.35135161  0.75422466  0.94899639     0.13700
C1599       C  0.35000253  0.78838374  0.95930710    -0.24000
H1600       H  0.39856177  0.76310431  0.93715177     0.15000
H1601       H  0.30803614  0.68107487  0.94181578     0.15000
C1602       C  0.35581715  0.65644704  0.91896243    -0.23900
H1603       H  0.37142307  0.80424728  0.95599595     0.05200
H1604       H  0.34892739  0.78470780  0.97544865     0.08500
H1605       H  0.32842046  0.80266065  0.95444275     0.08500
H1606       H  0.37541014  0.64027516  0.92482347     0.08400
H1607       H  0.35987903  0.66076333  0.90304129     0.08400
H1608       H  0.33304299  0.64203928  0.92069980     0.05200
C1609       C  0.15368894  0.93426638  0.05464705    -0.20600
C1610       C  0.15811860  0.96899362  0.05044097    -0.07100
C1611       C  0.13645798  0.99349651  0.05802608     0.13700
C1612       C  0.10933230  0.98236986  0.06843206    -0.20600
C1613       C  0.10337627  0.94734587  0.07108622    -0.07200
C1614       C  0.12657106  0.92305339  0.06490130     0.13700
C1615       C  0.12297263  0.88528155  0.06895734    -0.24000
H1616       H  0.17081918  0.91574343  0.04907319     0.15000
H1617       H  0.09158158  0.50082894  0.07335683     0.15000
C1618       C  0.14131303  0.53120925  0.05457227    -0.23900
H1619       H  0.14471174  0.87065748  0.06461731     0.05200
H1620       H  0.10269036  0.87473588  0.06041479     0.08500
H1621       H  0.11887755  0.88104812  0.08488785     0.08500
H1622       H  0.14094121  0.53692702  0.03861738     0.08400
H1623       H  0.16481036  0.53902051  0.06075722     0.08400
H1624       H  0.12234420  0.54682568  0.06173518     0.05200
C1625       C  0.37626327  0.97987326  0.06434808    -0.20600
C1626       C  0.38056164  0.94558006  0.06970194    -0.07100
C1627       C  0.35599143  0.92147105  0.06602675     0.13700
C1628       C  0.32895418  0.93163286  0.05534743    -0.20600
C1629       C  0.32583775  0.96535380  0.04865078    -0.07200
C1630       C  0.34908712  0.99009286  0.05379629     0.13700
C1631       C  0.34545982  0.02707836  0.04788439    -0.24000
H1632       H  0.39494711  0.99832884  0.06755943     0.15000
H1633       H  0.31058746  0.91305411  0.05170985     0.15000
C1634       C  0.35784056  0.88531481  0.07369342    -0.23900
H1635       H  0.36537641  0.04308158  0.05361289     0.05200
H1636       H  0.32303759  0.53759906  0.05349375     0.08500
H1637       H  0.34538752  0.02941745  0.03165091     0.08500
H1638       H  0.36059080  0.88579522  0.08990930     0.08400
H1639       H  0.37845485  0.87166480  0.06714047     0.08400
H1640       H  0.33590079  0.87044668  0.07014082     0.05200
C1641       C  0.11290103  0.57810427  0.95348283    -0.20600
C1642       C  0.10196162  0.55838131  0.93746176    -0.07100
C1643       C  0.12077611  0.53017164  0.93106735     0.13700
C1644       C  0.14873173  0.52154118  0.94149904    -0.20600
C1645       C  0.15824929  0.54025387  0.95806997    -0.07200
C1646       C  0.14059054  0.56925887  0.96388836     0.13700
C1647       C  0.15066248  0.59042870  0.98137127    -0.24000
H1648       H  0.09930604  0.60020380  0.95833866     0.15000
H1649       H  0.16262262  0.49928176  0.93720085     0.15000
C1650       C  0.11162352  0.50866319  0.91357184    -0.23900
H1651       H  0.13466436  0.61284074  0.98364604     0.05200
H1652       H  0.17541568  0.60005158  0.97910875     0.08500
H1653       H  0.14999396  0.57459524  0.99489060     0.08500
H1654       H  0.11022805  0.52498222  0.90026007     0.08400
H1655       H  0.08860316  0.99634238  0.91606621     0.08400
H1656       H  0.12994691  0.98882397  0.91043591     0.05200
C1657       C  0.34458532  0.55993490  0.96510422    -0.20600
C1658       C  0.32703180  0.53295301  0.95703627    -0.07100
C1659       C  0.33787620  0.51724136  0.93954160     0.13700
C1660       C  0.36635668  0.52888216  0.93064555    -0.20600
C1661       C  0.38443769  0.55576887  0.93884230    -0.07200
C1662       C  0.37306700  0.57153517  0.95647718     0.13700
C1663       C  0.39071481  0.59995500  0.96697525    -0.24000
H1664       H  0.33622137  0.57140842  0.97870099     0.15000
H1665       H  0.37456580  0.51658171  0.91727277     0.15000
C1666       C  0.32033996  0.48778014  0.93016004    -0.23900
H1667       H  0.37845721  0.60785560  0.98075387     0.05200
H1668       H  0.39205170  0.62304367  0.95755096     0.08500
H1669       H  0.41511284  0.59121330  0.97109321     0.08500
H1670       H  0.31343703  0.49480905  0.91494703     0.08400
H1671       H  0.29824481  0.48063916  0.93822096     0.08400
H1672       H  0.33626537  0.46500423  0.92963783     0.05200
C1673       C  0.17979712  0.51621662  0.69340906    -0.20600
C1674       C  0.16335897  0.52039840  0.67558679    -0.07100
C1675       C  0.13748850  0.49852516  0.67105665     0.13700
C1676       C  0.12852843  0.97305927  0.68448569    -0.20600
C1677       C  0.14532176  0.96853587  0.70213154    -0.07200
C1678       C  0.17155822  0.99001769  0.70654047     0.13700
C1679       C  0.19129705  0.98482621  0.72482741    -0.24000
H1680       H  0.19959846  0.53306765  0.69689064     0.15000
H1681       H  0.10825625  0.95662224  0.68130844     0.15000
C1682       C  0.11843752  0.50306792  0.65247169    -0.23900
H1683       H  0.21156298  0.00321119  0.72564003     0.05200
H1684       H  0.20138986  0.95850271  0.72486724     0.08500
H1685       H  0.17626729  0.98848316  0.73811138     0.08500
H1686       H  0.13410714  0.49916062  0.63948379     0.08400
H1687       H  0.10817939  0.52930982  0.65203525     0.08400
H1688       H  0.09808557  0.98490854  0.65161515     0.05200
C1689       C  0.15513738  0.76318176  0.70945399    -0.20600
C1690       C  0.13538014  0.78908160  0.70184696    -0.07100
C1691       C  0.12428195  0.78627808  0.68228921     0.13700
C1692       C  0.13439073  0.75851433  0.67069577    -0.20600
C1693       C  0.15437811  0.73270284  0.67823663    -0.07200
C1694       C  0.16411929  0.73462971  0.69816018     0.13700
C1695       C  0.18412339  0.70721048  0.70777852    -0.24000
H1696       H  0.16324011  0.76520441  0.72453720     0.15000
H1697       H  0.12663509  0.75708522  0.65551491     0.15000
C1698       C  0.10160339  0.81175825  0.67319059    -0.23900
H1699       H  0.18971638  0.71352511  0.72331343     0.05200
H1700       H  0.20719465  0.70403595  0.69996001     0.08500
H1701       H  0.17084732  0.68258425  0.70768481     0.08500
H1702       H  0.11335691  0.82411757  0.66039604     0.08400
H1703       H  0.09387289  0.83208121  0.68352429     0.08400
H1704       H  0.07973195  0.79825822  0.66807081     0.05200
C1705       C  0.35100754  0.52168155  0.68189947    -0.20600
C1706       C  0.31876211  0.52416484  0.67648106    -0.07100
C1707       C  0.29650038  0.00046317  0.68397092     0.13700
C1708       C  0.30701901  0.97437814  0.69656083    -0.20600
C1709       C  0.33937301  0.97154323  0.70184537    -0.07200
C1710       C  0.36174596  0.99560279  0.69447468     0.13700
C1711       C  0.39684886  0.99450548  0.69957184    -0.24000
H1712       H  0.36809201  0.53999120  0.67610391     0.15000
H1713       H  0.28990847  0.95624926  0.70250482     0.15000
C1714       C  0.26137761  0.00305274  0.67907546    -0.23900
H1715       H  0.40352700  0.51866755  0.70720613     0.05200
H1716       H  0.40317317  0.97278910  0.70927955     0.08500
H1717       H  0.41120204  0.99199547  0.68590190     0.08500
H1718       H  0.25763657  0.49937507  0.66306707     0.08400
H1719       H  0.25208543  0.52847058  0.68348653     0.08400
H1720       H  0.24702223  0.98331116  0.68685216     0.05200
C1721       C  0.34757643  0.74294930  0.68252029    -0.20600
C1722       C  0.31486541  0.73994120  0.67828373    -0.07100
C1723       C  0.29278606  0.76313637  0.68678171     0.13700
C1724       C  0.30406111  0.78944690  0.69894056    -0.20600
C1725       C  0.33679744  0.79289075  0.70289596    -0.07200
C1726       C  0.35883529  0.76921997  0.69484036     0.13700
C1727       C  0.39413690  0.77197786  0.69910662    -0.24000
H1728       H  0.36432911  0.72502809  0.67596550     0.15000
H1729       H  0.28730126  0.80729941  0.70555830     0.15000
C1730       C  0.25728461  0.75980912  0.68331104    -0.23900
H1731       H  0.40805624  0.75166382  0.69147303     0.05200
H1732       H  0.39839752  0.76938758  0.71512498     0.08500
H1733       H  0.40316301  0.79725130  0.69410674     0.08500
H1734       H  0.24940124  0.73394782  0.68786303     0.08400
H1735       H  0.25176253  0.76349631  0.66752558     0.08400
H1736       H  0.24333752  0.77899479  0.69184460     0.05200
C1737       C  0.18644846  0.99581865  0.31189273    -0.20600
C1738       C  0.16288499  0.97973800  0.32327742    -0.07100
C1739       C  0.13112298  0.49138335  0.32233281     0.13700
C1740       C  0.12310360  0.51771977  0.30916019    -0.20600
C1741       C  0.14651437  0.53257553  0.29703887    -0.07200
C1742       C  0.17854213  0.02197156  0.29871941     0.13700
C1743       C  0.20514044  0.03722239  0.28651961    -0.24000
H1744       H  0.21124518  0.98789263  0.31330212     0.15000
H1745       H  0.09853814  0.52656872  0.30815855     0.15000
C1746       C  0.10562733  0.47562050  0.33508715    -0.23900
H1747       H  0.22352362  0.04855376  0.29634915     0.05200
H1748       H  0.19658080  0.55536878  0.27505643     0.08500
H1749       H  0.21650344  0.01676941  0.27754046     0.08500
H1750       H  0.11181095  0.47935151  0.35080510     0.08400
H1751       H  0.10390821  0.44776079  0.33193664     0.08400
H1752       H  0.08177337  0.48733427  0.33241219     0.05200
C1753       C  0.13837307  0.76032904  0.31129035    -0.20600
C1754       C  0.16885191  0.76300460  0.31963782    -0.07100
C1755       C  0.19351620  0.74030051  0.31368429     0.13700
C1756       C  0.18661494  0.71445587  0.30001663    -0.20600
C1757       C  0.15581487  0.71108845  0.29213064    -0.07200
C1758       C  0.13152872  0.73459500  0.29752533     0.13700
C1759       C  0.09828598  0.73220054  0.28901569    -0.24000
H1760       H  0.11980159  0.77815445  0.31575094     0.15000
H1761       H  0.20519161  0.69666305  0.29551264     0.15000
C1762       C  0.22717959  0.74352501  0.32149061    -0.23900
H1763       H  0.08207128  0.75198428  0.29527585     0.05200
H1764       H  0.08792391  0.70663711  0.29223482     0.08500
H1765       H  0.09915074  0.73603303  0.27288238     0.08500
H1766       H  0.22748870  0.73897029  0.33756202     0.08400
H1767       H  0.23648801  0.76958919  0.31840363     0.08400
H1768       H  0.24364142  0.72465787  0.31456381     0.05200
C1769       C  0.33930596  0.50235105  0.32857384    -0.20600
C1770       C  0.31782490  0.97680732  0.32235580    -0.07100
C1771       C  0.30490505  0.97855068  0.30308578     0.13700
C1772       C  0.31399597  0.50556776  0.29070521    -0.20600
C1773       C  0.33536464  0.53094159  0.29697356    -0.07200
C1774       C  0.34852803  0.52917242  0.31605643     0.13700
C1775       C  0.37278118  0.55500443  0.32309390    -0.24000
H1776       H  0.34890150  0.50122955  0.34335061     0.15000
H1777       H  0.30420794  0.50709675  0.27598417     0.15000
C1778       C  0.28121781  0.95268580  0.29533480    -0.23900
H1779       H  0.38167822  0.54878755  0.33803810     0.05200
H1780       H  0.36196336  0.58091200  0.32371994     0.08500
H1781       H  0.39362522  0.55535411  0.31295121     0.08500
H1782       H  0.25984249  0.95170743  0.30503228     0.08400
H1783       H  0.29262980  0.92704427  0.29446129     0.08400
H1784       H  0.27280516  0.95925279  0.28033125     0.05200
C1785       C  0.30393668  0.76223297  0.30297807    -0.20600
C1786       C  0.31661957  0.76195049  0.32209010    -0.07100
C1787       C  0.33804594  0.73552314  0.32749665     0.13700
C1788       C  0.34577471  0.70984741  0.31379720    -0.20600
C1789       C  0.33216487  0.70950503  0.29495808    -0.07200
C1790       C  0.31082156  0.73601546  0.28950579     0.13700
C1791       C  0.29407783  0.73697389  0.26988815    -0.24000
H1792       H  0.28729205  0.78222481  0.29874675     0.15000
H1793       H  0.36245067  0.68974373  0.31780506     0.15000
C1794       C  0.35342282  0.73468988  0.34751068    -0.23900
H1795       H  0.26774074  0.73752244  0.27224184     0.05200
H1796       H  0.29944455  0.71446965  0.26052060     0.08500
H1797       H  0.30128847  0.76043692  0.26182281     0.08500
H1798       H  0.33494418  0.73095708  0.35902567     0.08400
H1799       H  0.36635076  0.75909060  0.35022412     0.08400
H1800       H  0.37093879  0.71338281  0.34881370     0.05200
C1801       C  0.07654103  0.69163202  0.55394555    -0.20600
C1802       C  0.07116488  0.72591474  0.54905115    -0.07100
C1803       C  0.09222830  0.75154220  0.55584991     0.13700
C1804       C  0.11955941  0.74195864  0.56651627    -0.20600
C1805       C  0.12641161  0.70730652  0.56994434    -0.07200
C1806       C  0.10411675  0.68186174  0.56415848     0.13700
C1807       C  0.10925829  0.64434515  0.56848112    -0.24000
H1808       H  0.05994677  0.67226960  0.54875815     0.15000
H1809       H  0.13654783  0.76134848  0.57114046     0.15000
C1810       C  0.08628133  0.78871080  0.55126482    -0.23900
H1811       H  0.08802092  0.62871359  0.56443610     0.05200
H1812       H  0.11376575  0.64068610  0.58440997     0.08500
H1813       H  0.12980152  0.63437333  0.55986672     0.08500
H1814       H  0.06272014  0.79660736  0.55736966     0.08400
H1815       H  0.08619754  0.79262461  0.53511636     0.08400
H1816       H  0.10503217  0.80547732  0.55770695     0.05200
C1817       C  0.38295990  0.75442348  0.55409910    -0.20600
C1818       C  0.40455813  0.72737021  0.55089841    -0.07100
C1819       C  0.39852247  0.69500993  0.55929346     0.13700
C1820       C  0.37042956  0.69015933  0.57018920    -0.20600
C1821       C  0.34760604  0.71635629  0.57206264    -0.07200
C1822       C  0.35418333  0.74912080  0.56438075     0.13700
C1823       C  0.32985000  0.77753796  0.56563558    -0.24000
H1824       H  0.38761910  0.77904517  0.54733929     0.15000
H1825       H  0.36518071  0.66507172  0.57618526     0.15000
C1826       C  0.42039552  0.66497039  0.55550326    -0.23900
H1827       H  0.33855947  0.80129251  0.55843847     0.05200
H1828       H  0.32468690  0.78349615  0.58126748     0.08500
H1829       H  0.30734978  0.76957019  0.55822948     0.08500
H1830       H  0.44475175  0.67061098  0.56115242     0.08400
H1831       H  0.42175485  0.65980270  0.53947903     0.08400
H1832       H  0.41166093  0.64133037  0.56281696     0.05200
C1833       C  0.11266557  0.81210218  0.44603829    -0.20600
C1834       C  0.12598604  0.79137194  0.43115738    -0.07100
C1835       C  0.10954140  0.76091256  0.42575849     0.13700
C1836       C  0.08189517  0.75103110  0.43631571    -0.20600
C1837       C  0.07006627  0.77102891  0.45185597    -0.07200
C1838       C  0.08506639  0.80236909  0.45634365     0.13700
C1839       C  0.07209457  0.82541873  0.47226419    -0.24000
H1840       H  0.12421739  0.83597724  0.45000101     0.15000
H1841       H  0.06998183  0.72711981  0.43284711     0.15000
C1842       C  0.12099906  0.73836978  0.40922232    -0.23900
H1843       H  0.08648539  0.84910040  0.47370350     0.05200
H1844       H  0.07261880  0.81209110  0.48664012     0.08500
H1845       H  0.04705144  0.83282304  0.46876048     0.08500
H1846       H  0.14534935  0.72850683  0.41251301     0.08400
H1847       H  0.12135872  0.75316333  0.39530953     0.08400
H1848       H  0.10502173  0.71595068  0.40700683     0.05200
C1849       C  0.39389835  0.75293093  0.43594914    -0.20600
C1850       C  0.40026510  0.76667988  0.45464481    -0.07100
C1851       C  0.37881507  0.79096224  0.46273827     0.13700
C1852       C  0.35115637  0.79961682  0.45242432    -0.20600
C1853       C  0.34463414  0.78650160  0.43362579    -0.07200
C1854       C  0.36651438  0.76283012  0.42518505     0.13700
C1855       C  0.36148098  0.74804279  0.40497984    -0.24000
H1856       H  0.41033776  0.73421620  0.42984731     0.15000
H1857       H  0.33463311  0.81741779  0.45927434     0.15000
C1858       C  0.38418205  0.80864192  0.48222799    -0.23900
H1859       H  0.38132482  0.73059271  0.40066281     0.05200
H1860       H  0.36034377  0.76899144  0.39399373     0.08500
H1861       H  0.33891618  0.73303498  0.40462805     0.08500
H1862       H  0.40793089  0.80329925  0.48874419     0.08400
H1863       H  0.36530241  0.80066824  0.49277975     0.08400
H1864       H  0.38275121  0.83681153  0.48025581     0.05200
C1865       C  0.11058749  0.53518673  0.57413039    -0.20600
C1866       C  0.13858879  0.54375233  0.56385565    -0.07100
C1867       C  0.14007918  0.53680095  0.54360198     0.13700
C1868       C  0.11245554  0.52572761  0.53387593    -0.20600
C1869       C  0.08206524  0.52490808  0.54314953    -0.07200
C1870       C  0.08294876  0.52366560  0.56412084     0.13700
C1871       C  0.05804759  0.50563808  0.57637232    -0.24000
H1872       H  0.11046903  0.53673024  0.59003252     0.15000
H1873       H  0.11530584  0.51758622  0.51885440     0.15000
C1874       C  0.17092771  0.54021320  0.53216254    -0.23900
H1875       H  0.06993324  0.48574094  0.58545945     0.05200
H1876       H  0.04008555  0.49191317  0.56737108     0.08500
H1877       H  0.04608485  0.52404840  0.58642995     0.08500
H1878       H  0.18985043  0.52424414  0.53903790     0.08400
H1879       H  0.17874176  0.56734903  0.53187004     0.08400
H1880       H  0.16817144  0.53173890  0.51667113     0.05200
C1881       C  0.39361180  0.56795535  0.53920598    -0.20600
C1882       C  0.40988430  0.53905995  0.54601736    -0.07100
C1883       C  0.39864021  0.52210851  0.56295708     0.13700
C1884       C  0.37063268  0.53395871  0.57236944    -0.20600
C1885       C  0.35306889  0.56189061  0.56494143    -0.07200
C1886       C  0.36526249  0.57941978  0.54812061     0.13700
C1887       C  0.34845670  0.60942128  0.53866710    -0.24000
H1888       H  0.40239413  0.58054073  0.52607026     0.15000
H1889       H  0.36188234  0.52056287  0.58522057     0.15000
C1890       C  0.41549938  0.49076696  0.57059446    -0.23900
H1891       H  0.36189788  0.61954075  0.52583290     0.05200
H1892       H  0.34607319  0.63075624  0.54930421     0.08500
H1893       H  0.32451519  0.60142629  0.53326279     0.08500
H1894       H  0.44054060  0.49729153  0.57458927     0.08400
H1895       H  0.41588641  0.97057220  0.55936100     0.08400
H1896       H  0.40346371  0.48030777  0.58384534     0.05200
C1897       C  0.11892175  0.93553540  0.44911417    -0.20600
C1898       C  0.13051451  0.95348390  0.43266526    -0.07100
C1899       C  0.11284344  0.98204835  0.42564071     0.13700
C1900       C  0.08419810  0.99148899  0.43519568    -0.20600
C1901       C  0.07333480  0.97362314  0.45173016    -0.07200
C1902       C  0.09099617  0.94554393  0.45885962     0.13700
C1903       C  0.08076888  0.92650458  0.47708960    -0.24000
H1904       H  0.13206862  0.91373924  0.45475765     0.15000
H1905       H  0.07067617  0.01348320  0.43015094     0.15000
C1906       C  0.12399724  0.00313178  0.40844992    -0.23900
H1907       H  0.09782286  0.90574600  0.48087084     0.05200
H1908       H  0.05669025  0.91508178  0.47483330     0.08500
H1909       H  0.07998919  0.94424119  0.48982589     0.08500
H1910       H  0.12609221  0.48770040  0.39532298     0.08400
H1911       H  0.14776220  0.01453686  0.41173540     0.08400
H1912       H  0.10723529  0.02450089  0.40522285     0.05200
C1913       C  0.35851041  0.98051023  0.43278975    -0.20600
C1914       C  0.34818208  0.94631572  0.43375259    -0.07100
C1915       C  0.36784383  0.92173592  0.44330415     0.13700
C1916       C  0.39564559  0.93245328  0.45296304    -0.20600
C1917       C  0.40453109  0.96687291  0.45319594    -0.07200
C1918       C  0.38659333  0.99105740  0.44244473     0.13700
C1919       C  0.39694891  0.02794639  0.44149065    -0.24000
H1920       H  0.34401975  0.99922861  0.42511019     0.15000
H1921       H  0.41002585  0.91408850  0.46101254     0.15000
C1922       C  0.36013336  0.88405965  0.44341756    -0.23900
H1923       H  0.38041189  0.04351689  0.43236715     0.05200
H1924       H  0.42128708  0.02952814  0.43493883     0.08500
H1925       H  0.39757836  0.53936000  0.45623556     0.08500
H1926       H  0.35580923  0.87489957  0.42820068     0.08400
H1927       H  0.33884205  0.87922600  0.45276398     0.08400
H1928       H  0.38019419  0.86870485  0.44947443     0.05200
N1929       N  0.94291377  0.50113577  0.49952779    -0.36900
N1930       N  0.49343774  0.01648056  0.52841966    -0.57400
N1931       N  0.53899420  0.00098462  0.49751829    -0.36900
N1932       N  0.48874642  0.48461212  0.46925154    -0.57400
C1933       C  0.92503874  0.00753100  0.51582175     0.26700
C1934       C  0.92292153  0.48814027  0.48563920     0.26700
C1935       C  0.55440029  0.02261089  0.50977935     0.26700
C1936       C  0.55135983  0.50704752  0.47942764     0.26700
C1937       C  0.96810501  0.02983903  0.53815570     0.35300
C1938       C  0.52022491  0.02718079  0.53785546     0.35300
C1939       C  0.96277679  0.47420112  0.45931371     0.35300
C1940       C  0.51436918  0.47618424  0.45827525     0.35300
C1941       C  0.89343793  0.99837916  0.51224035    -0.22200
C1942       C  0.89208123  0.48646729  0.49320806    -0.22200
C1943       C  0.57423543  0.04416006  0.49903740    -0.22200
C1944       C  0.57351144  0.53324646  0.47996028    -0.22200
C1945       C  0.97878169  0.04966142  0.55373018    -0.23200
C1946       C  0.51178129  0.04847738  0.55331833    -0.23200
C1947       C  0.97193032  0.45915098  0.44166351    -0.23200
C1948       C  0.50494703  0.46003325  0.44113648    -0.23200
C1949       C  0.93552372  0.02429548  0.53322379    -0.18600
C1950       C  0.93114819  0.47765417  0.46624572    -0.18600
C1951       C  0.54546722  0.48659180  0.46296810    -0.18600
C1952       C  0.55170741  0.02218089  0.53049611    -0.18600
H1953       H  0.87320800  0.00077914  0.52211143     0.14300
H1954       H  0.87066925  0.47743310  0.48589304     0.14300
H1955       H  0.58878162  0.06499604  0.50456433     0.14300
H1956       H  0.58740468  0.54323219  0.46782438     0.14300
H1957       H  0.96433208  0.06441833  0.56389202     0.12600
H1958       H  0.52759687  0.06348651  0.56249048     0.12600
H1959       H  0.95650373  0.44855460  0.43042391     0.12600
H1960       H  0.52009703  0.45120477  0.42924551     0.12600
H1961       H  0.96673997  0.50796364  0.49769279     0.25900
H1962       H  0.52398240  0.98079442  0.50158591     0.25900
N1963       N  0.93923830  0.24186024  0.50091677    -0.36900
N1964       N  0.48772508  0.23498570  0.53032100    -0.57400
N1965       N  0.53524019  0.24529715  0.49974512    -0.36900
N1966       N  0.48633526  0.25049940  0.46963021    -0.57400
C1967       C  0.92176851  0.22963963  0.51610940     0.26700
C1968       C  0.92133035  0.23817068  0.48453232     0.26700
C1969       C  0.55386061  0.23374544  0.51458359     0.26700
C1970       C  0.55306235  0.24407595  0.48313729     0.26700
C1971       C  0.96216675  0.23660948  0.54241524     0.35300
C1972       C  0.51393152  0.23713231  0.54175765     0.35300
C1973       C  0.95972642  0.26110704  0.46011943     0.35300
C1974       C  0.51162843  0.26274381  0.45940114     0.35300
C1975       C  0.89259331  0.21756217  0.50924075    -0.22200
C1976       C  0.89231082  0.22301090  0.48929706    -0.22200
C1977       C  0.58383740  0.22498072  0.50725259    -0.22200
C1978       C  0.58337750  0.23173068  0.48744635    -0.22200
C1979       C  0.97210224  0.23973132  0.56174857    -0.23200
C1980       C  0.50508478  0.23987714  0.56133882    -0.23200
C1981       C  0.96814877  0.27933839  0.44344172    -0.23200
C1982       C  0.50112970  0.28022189  0.44293657    -0.23200
C1983       C  0.93033245  0.23193825  0.53615698    -0.18600
C1984       C  0.92809489  0.25403014  0.46635523    -0.18600
C1985       C  0.54398164  0.25793071  0.46479798    -0.18600
C1986       C  0.54550699  0.23350128  0.53476926    -0.18600
H1987       H  0.87309200  0.20698841  0.51779164     0.14300
H1988       H  0.87241844  0.21795479  0.47952684     0.14300
H1989       H  0.60430392  0.21567528  0.51541223     0.14300
H1990       H  0.60334334  0.22872168  0.47742925     0.14300
H1991       H  0.95719964  0.24073773  0.57475903     0.12600
H1992       H  0.52074365  0.24121087  0.57398082     0.12600
H1993       H  0.95226188  0.29104074  0.43284557     0.12600
H1994       H  0.51569271  0.29270247  0.43190745     0.12600
H1995       H  0.95958338  0.25707537  0.50205382     0.25900
H1996       H  0.51341447  0.25781040  0.50127224     0.25900
N1997       N  0.77467703  0.30576021  0.40564158    -0.06400
N1998       N  0.80036861  0.28616342  0.40792706    -0.58500
N1999       N  0.69986011  0.33115890  0.41866589    -0.06100
N2000       N  0.67421720  0.32941429  0.42991322    -0.60600
N2001       N  0.69921656  0.30720630  0.40511697    -0.05700
N2002       N  0.67280214  0.28859987  0.40696046    -0.58500
N2003       N  0.77398885  0.32974464  0.41916968    -0.05400
N2004       N  0.79890314  0.32706883  0.43085683    -0.61000
C2005       C  0.81527250  0.29979585  0.42384648     0.95800
C2006       C  0.65734763  0.30276099  0.42258801     0.95600
N2007       N  0.70201170  0.43473021  0.40594466    -0.06600
N2008       N  0.67689988  0.45504159  0.40836604    -0.59100
N2009       N  0.77483281  0.40887656  0.41994947    -0.04700
N2010       N  0.79925544  0.41051481  0.43205751    -0.60300
N2011       N  0.77664944  0.43312959  0.40665576    -0.06600
N2012       N  0.80275298  0.45179792  0.40947800    -0.59400
N2013       N  0.70167105  0.41026996  0.41914630    -0.04300
N2014       N  0.67667391  0.41337643  0.43077546    -0.60400
Mn2015     Mn  0.73755133  0.36990918  0.41979159     1.18400
C2016       C  0.66127398  0.44138724  0.42399944     0.97900
C2017       C  0.81673404  0.43703637  0.42535722     0.98500
N2018       N  0.70214530  0.30674306  0.35872018    -0.06600
N2019       N  0.68458945  0.28064125  0.35284061    -0.62900
N2020       N  0.77538050  0.32884985  0.34566242    -0.05400
N2021       N  0.79412283  0.31913213  0.33102317    -0.63600
N2022       N  0.77462672  0.30498081  0.35929156    -0.06100
N2023       N  0.79301683  0.27893359  0.35416436    -0.63200
N2024       N  0.70301471  0.33053405  0.34503967    -0.05000
N2025       N  0.68622351  0.32061904  0.32962443    -0.63900
Mn2026     Mn  0.73762694  0.30515684  0.38242534     1.10700
C2027       C  0.67456991  0.28953397  0.33469620     0.99100
C2028       C  0.80545784  0.28808431  0.33657927     0.99200
N2029       N  0.77691252  0.43501653  0.36002634    -0.06100
N2030       N  0.79557651  0.46065891  0.35465313    -0.61500
N2031       N  0.70429607  0.41309794  0.34569786    -0.05500
N2032       N  0.68551858  0.42293388  0.33115318    -0.58200
N2033       N  0.70428861  0.43645585  0.35966954    -0.06800
N2034       N  0.68532717  0.46217926  0.35493226    -0.61100
N2035       N  0.77700314  0.41098101  0.34643219    -0.05800
N2036       N  0.79580514  0.41992949  0.33174654    -0.58300
Mn2037     Mn  0.74004876  0.43592598  0.38324744     1.20200
Mn2038     Mn  0.73990439  0.37094278  0.34538722     1.10100
Cl2039     Cl  0.73879578  0.37051827  0.38254796    -0.86200
C2040       C  0.80722799  0.45105719  0.33690656     0.96100
C2041       C  0.67322963  0.45328177  0.33724877     0.95900
N2042       N  0.77396711  0.19887817  0.59564905    -0.06400
N2043       N  0.79939479  0.21902012  0.59423853    -0.58500
N2044       N  0.70111354  0.17118297  0.58159942    -0.06100
N2045       N  0.67586730  0.17233102  0.57011212    -0.60600
N2046       N  0.69935987  0.19473518  0.59535285    -0.05700
N2047       N  0.67257493  0.21260209  0.59346436    -0.58500
N2048       N  0.77455406  0.17542525  0.58179785    -0.05400
N2049       N  0.80019253  0.17886770  0.57074255    -0.61000
C2050       C  0.81528984  0.20623574  0.57847191     0.95800
C2051       C  0.65817356  0.19799813  0.57769640     0.95600
N2052       N  0.70547791  0.06737951  0.59300363    -0.06600
N2053       N  0.68130485  0.04598033  0.59003301    -0.59100
N2054       N  0.77851562  0.09702676  0.58009134    -0.04700
N2055       N  0.80351293  0.09755183  0.56834825    -0.60300
N2056       N  0.78092617  0.07218638  0.59297154    -0.06600
N2057       N  0.80811747  0.05519561  0.59006018    -0.59400
N2058       N  0.70490782  0.09205980  0.57991308    -0.04300
N2059       N  0.68073467  0.08795718  0.56770901    -0.60400
Mn2060     Mn  0.73967470  0.13396092  0.58031003     1.18400
C2061       C  0.66617839  0.05921229  0.57413323     0.97900
C2062       C  0.82199383  0.07143742  0.57450103     0.98500
N2063       N  0.69989492  0.19344141  0.64152550    -0.06600
N2064       N  0.67925577  0.21744642  0.64661037    -0.62900
N2065       N  0.77389800  0.17337088  0.65527125    -0.05400
N2066       N  0.79308571  0.18288594  0.66972543    -0.63600
N2067       N  0.77269485  0.19745000  0.64178396    -0.06100
N2068       N  0.79123754  0.22336658  0.64671786    -0.63200
N2069       N  0.70100262  0.16935777  0.65499908    -0.05000
N2070       N  0.68117534  0.17689707  0.66951890    -0.63900
Mn2071     Mn  0.73641225  0.19720748  0.61843922     1.10700
C2072       C  0.66770470  0.20708995  0.66418276     0.99100
C2073       C  0.80422601  0.21393694  0.66404646     0.99200
N2074       N  0.77893964  0.06809781  0.63962831    -0.06100
N2075       N  0.79825329  0.04271129  0.64440485    -0.61500
N2076       N  0.70519105  0.08755810  0.65360004    -0.05500
N2077       N  0.68606431  0.07736715  0.66787288    -0.58200
N2078       N  0.70629737  0.06434120  0.63954972    -0.06800
N2079       N  0.68769915  0.03813619  0.64407312    -0.61100
N2080       N  0.77764422  0.09081919  0.65394281    -0.05800
N2081       N  0.79597779  0.08087019  0.66869155    -0.58300
Mn2082     Mn  0.74301073  0.06687280  0.61607406     1.20200
Mn2083     Mn  0.73949578  0.13029224  0.65486454     1.10100
Cl2084     Cl  0.73965188  0.13200775  0.61758043    -0.86200
C2085       C  0.80915712  0.05104117  0.66246508     0.96100
C2086       C  0.67482996  0.04670983  0.66168541     0.95900
N2087       N  0.78988964  0.99682620  0.00193458    -0.36900
N2088       N  0.74202421  0.01818806  0.97397224    -0.57400
N2089       N  0.69352644  0.00269739  0.00354674    -0.36900
N2090       N  0.74156549  0.47903332  0.03073523    -0.57400
C2091       C  0.80743275  0.99901796  0.98526338     0.26700
C2092       C  0.80723589  0.47861223  0.01492482     0.26700
C2093       C  0.67537869  0.00753891  0.98734898     0.26700
C2094       C  0.67495356  0.48641805  0.01692906     0.26700
C2095       C  0.76834969  0.03090008  0.96502981     0.35300
C2096       C  0.71657843  0.03410917  0.96587185     0.35300
C2097       C  0.76772725  0.47517852  0.04212840     0.35300
C2098       C  0.71597202  0.47715836  0.04280053     0.35300
C2099       C  0.83619262  0.98176489  0.98767101    -0.22200
C2100       C  0.83593683  0.46861987  0.00634462    -0.22200
C2101       C  0.64497793  0.99425085  0.99047666    -0.22200
C2102       C  0.64468405  0.48088472  0.00914050    -0.22200
C2103       C  0.75963416  0.05471009  0.95094739    -0.23200
C2104       C  0.72666694  0.05670998  0.95145755    -0.23200
C2105       C  0.75874632  0.47026354  0.06153160    -0.23200
C2106       C  0.72582467  0.47134557  0.06193894    -0.23200
C2107       C  0.79986293  0.01978278  0.96895822    -0.18600
C2108       C  0.79937827  0.47381092  0.03492175    -0.18600
C2109       C  0.68386543  0.47864664  0.03647321    -0.18600
C2110       C  0.68442398  0.02686027  0.97069645    -0.18600
H2111       H  0.85561670  0.97962078  0.97719282     0.14300
H2112       H  0.85524949  0.45440224  0.01312014     0.14300
H2113       H  0.62478137  0.99485005  0.98052339     0.14300
H2114       H  0.62432667  0.46909022  0.01629871     0.14300
H2115       H  0.77534239  0.06894066  0.94128993     0.12600
H2116       H  0.71183010  0.07285748  0.94229436     0.12600
H2117       H  0.77422338  0.46581806  0.07401466     0.12600
H2118       H  0.71087087  0.46801223  0.07479326     0.12600
H2119       H  0.76968899  0.01132990  0.00525385     0.25900
H2120       H  0.71566482  0.01397152  0.00620625     0.25900
N2121       N  0.79025764  0.24197260  0.00070636    -0.36900
N2122       N  0.74285709  0.24800249  0.03201773    -0.57400
N2123       N  0.69578721  0.24136001  0.00112591    -0.36900
N2124       N  0.74311586  0.23505073  0.97083587    -0.57400
C2125       C  0.80721440  0.23642803  0.01725005     0.26700
C2126       C  0.80797162  0.22998761  0.98557507     0.26700
C2127       C  0.67813980  0.23861339  0.01768281     0.26700
C2128       C  0.67790431  0.22889971  0.98621153     0.26700
C2129       C  0.76902827  0.26102482  0.04086085     0.35300
C2130       C  0.71730489  0.26239294  0.04092424     0.35300
C2131       C  0.76875918  0.23908220  0.95909262     0.35300
C2132       C  0.71709283  0.23734148  0.95930472     0.35300
C2133       C  0.83582023  0.22016000  0.01266898    -0.22200
C2134       C  0.83628247  0.21599884  0.99260977    -0.22200
C2135       C  0.64889844  0.22359382  0.01337968    -0.22200
C2136       C  0.64877405  0.21732156  0.99348982    -0.22200
C2137       C  0.76019459  0.28331256  0.05577924    -0.23200
C2138       C  0.72715824  0.28409678  0.05586420    -0.23200
C2139       C  0.75910616  0.24388337  0.93982131    -0.23200
C2140       C  0.72611240  0.24263597  0.93994763    -0.23200
C2141       C  0.80049888  0.25239310  0.03535689    -0.18600
C2142       C  0.80041782  0.23450606  0.96555280    -0.18600
C2143       C  0.68577160  0.23144723  0.96605210    -0.18600
C2144       C  0.68544701  0.25565721  0.03540614    -0.18600
H2145       H  0.85507043  0.21377403  0.02266122     0.14300
H2146       H  0.85577955  0.20520915  0.98411286     0.14300
H2147       H  0.62908918  0.21940162  0.02336530     0.14300
H2148       H  0.62887861  0.20696155  0.98521097     0.14300
H2149       H  0.77586971  0.29776401  0.06535620     0.12600
H2150       H  0.71219272  0.29932995  0.06549751     0.12600
H2151       H  0.77422119  0.24686385  0.92700991     0.12600
H2152       H  0.71061663  0.24455193  0.92726061     0.12600
H2153       H  0.77058639  0.25826858  0.99955666     0.25900
H2154       H  0.71622878  0.25638099  0.99968230     0.25900
N2155       N  0.95470026  0.19753812  0.90574058    -0.06400
N2156       N  0.92809700  0.21589555  0.90644384    -0.58500
N2157       N  0.02850148  0.17568187  0.92121251    -0.06100
N2158       N  0.55340358  0.17896693  0.93289264    -0.60600
N2159       N  0.02912535  0.19897457  0.90735121    -0.05700
N2160       N  0.55463734  0.21878356  0.90931067    -0.58500
N2161       N  0.95477708  0.17445379  0.91974412    -0.05400
N2162       N  0.92830754  0.17620015  0.93018318    -0.61000
C2163       C  0.91197230  0.20198283  0.92171450     0.95800
C2164       C  0.56932113  0.20608946  0.92546036     0.95600
N2165       N  0.02977026  0.07126296  0.91029848    -0.06600
N2166       N  0.55595661  0.05275632  0.91316962    -0.59100
N2167       N  0.95556448  0.09630290  0.92219036    -0.04700
N2168       N  0.93140308  0.09476127  0.93450871    -0.60300
N2169       N  0.95436750  0.07114794  0.90938374    -0.06600
N2170       N  0.92883561  0.05178101  0.91299275    -0.59400
N2171       N  0.02880946  0.09661161  0.92299469    -0.04300
N2172       N  0.55385402  0.09585550  0.93469871    -0.60400
Mn2173     Mn  0.99200722  0.13580646  0.92206660     1.18400
C2174       C  0.57078301  0.06841711  0.92851579     0.97900
C2175       C  0.91470757  0.06702182  0.92886138     0.98500
N2176       N  0.53106103  0.19666556  0.86163096    -0.06600
N2177       N  0.54878098  0.22308658  0.85657554    -0.62900
N2178       N  0.95976776  0.17205288  0.84608032    -0.05400
N2179       N  0.94227930  0.18094342  0.83073049    -0.63600
N2180       N  0.95846003  0.19615927  0.85959508    -0.06100
N2181       N  0.93987934  0.22149923  0.85375568    -0.63200
N2182       N  0.53216368  0.17276738  0.84799184    -0.05000
N2183       N  0.55023642  0.18324113  0.83320965    -0.63900
Mn2184     Mn  0.99323650  0.19816331  0.88375081     1.10700
C2185       C  0.56068961  0.21467232  0.83879907     0.99100
C2186       C  0.92977666  0.21181684  0.83572756     0.99200
N2187       N  0.95851402  0.06650985  0.86174908    -0.06100
N2188       N  0.94072670  0.04039283  0.85582268    -0.61500
N2189       N  0.53244738  0.08960999  0.84989833    -0.05500
N2190       N  0.55156404  0.07880713  0.83570074    -0.58200
N2191       N  0.53098563  0.06647317  0.86394619    -0.06800
N2192       N  0.54920884  0.03992891  0.85948129    -0.61100
N2193       N  0.96001537  0.08985507  0.84778856    -0.05800
N2194       N  0.94322284  0.08004292  0.83238314    -0.58300
Mn2195     Mn  0.99311173  0.06760092  0.88656336     1.20200
Mn2196     Mn  0.99624566  0.13097122  0.84764780     1.10100
Cl2197     Cl  0.99358025  0.13298618  0.88486835    -0.86200
C2198       C  0.93114941  0.04924164  0.83747449     0.96100
C2199       C  0.56204597  0.04776456  0.84178992     0.95900
N2200       N  0.59021600  0.38293175  0.77681390    -0.36900
N2201       N  0.61168913  0.43391703  0.74918056    -0.57400
N2202       N  0.62519924  0.38008306  0.72018994    -0.36900
N2203       N  0.60618921  0.32924976  0.74842278    -0.57400
C2204       C  0.59197184  0.41078293  0.78865244     0.26700
C2205       C  0.59048747  0.35495068  0.78851950     0.26700
C2206       C  0.64029888  0.40710755  0.71193803     0.26700
C2207       C  0.63649520  0.35133029  0.71140113     0.26700
C2208       C  0.59816558  0.45485070  0.76272405     0.35300
C2209       C  0.61742267  0.45329998  0.73314524     0.35300
C2210       C  0.59152539  0.31038912  0.76236783     0.35300
C2211       C  0.60844913  0.30900561  0.73237332     0.35300
C2212       C  0.59274489  0.40035076  0.80810848    -0.22200
C2213       C  0.59183928  0.36513155  0.80802069    -0.22200
C2214       C  0.66121597  0.39545786  0.69753619    -0.22200
C2215       C  0.65885481  0.36022570  0.69722294    -0.22200
C2216       C  0.59523520  0.48767982  0.75524784    -0.23200
C2217       C  0.60753172  0.48673442  0.73652918    -0.23200
C2218       C  0.58424836  0.27810142  0.75515091    -0.23200
C2219       C  0.59488532  0.27725411  0.73610482    -0.23200
C2220       C  0.59170160  0.44537692  0.78238700    -0.18600
C2221       C  0.58795274  0.32055553  0.78211755    -0.18600
C2222       C  0.62579419  0.31752721  0.71524699    -0.18600
C2223       C  0.63409127  0.44202102  0.71620862    -0.18600
H2224       H  0.59399336  0.41642508  0.82105208     0.14300
H2225       H  0.59209829  0.34887407  0.82087839     0.14300
H2226       H  0.67642648  0.41077778  0.68812965     0.14300
H2227       H  0.67188880  0.34315379  0.68754357     0.14300
H2228       H  0.58595616  0.01027887  0.76272307     0.12600
H2229       H  0.60948604  0.00849915  0.72671565     0.12600
H2230       H  0.57324147  0.25705252  0.76297673     0.12600
H2231       H  0.59359917  0.25541873  0.72632128     0.12600
H2232       H  0.58582288  0.38306546  0.76178452     0.25900
H2233       H  0.60573978  0.38153887  0.72970618     0.25900
N2234       N  0.86756389  0.33003473  0.75008642    -0.36900
N2235       N  0.88266394  0.38209796  0.77885961    -0.57400
N2236       N  0.86912045  0.43450586  0.74947322    -0.36900
N2237       N  0.85157064  0.38226606  0.72131381    -0.57400
C2238       C  0.86894973  0.31110879  0.76669645     0.26700
C2239       C  0.85191010  0.31109169  0.73651659     0.26700
C2240       C  0.87071197  0.45351719  0.76608210     0.26700
C2241       C  0.85384926  0.45364148  0.73581122     0.26700
C2242       C  0.89446105  0.35433326  0.78826395     0.35300
C2243       C  0.89505043  0.40984412  0.78798291     0.35300
C2244       C  0.84884043  0.35431008  0.70972206     0.35300
C2245       C  0.84950095  0.40982784  0.70940239     0.35300
C2246       C  0.85400467  0.27985441  0.76365035    -0.22200
C2247       C  0.84327983  0.27981371  0.74459028    -0.22200
C2248       C  0.85640710  0.48508627  0.76293050    -0.22200
C2249       C  0.84576124  0.48517437  0.74381976    -0.22200
C2250       C  0.91422683  0.36447040  0.80353768    -0.23200
C2251       C  0.91463594  0.39968758  0.80334629    -0.23200
C2252       C  0.84483689  0.36412278  0.69031571    -0.23200
C2253       C  0.84527970  0.39935349  0.69010960    -0.23200
C2254       C  0.88577776  0.32012678  0.78394023    -0.18600
C2255       C  0.84700142  0.32028358  0.71668648    -0.18600
C2256       C  0.84856558  0.44416755  0.71600916    -0.18600
C2257       C  0.88694861  0.44411445  0.78348351    -0.18600
H2258       H  0.85153838  0.25901139  0.77400339     0.14300
H2259       H  0.83091921  0.25889429  0.73741310     0.14300
H2260       H  0.85419492  0.00610701  0.77322450     0.14300
H2261       H  0.83376442  0.00625235  0.73652045     0.14300
H2262       H  0.92672483  0.34822979  0.81387135     0.12600
H2263       H  0.92746695  0.41596301  0.81353550     0.12600
H2264       H  0.84121655  0.34764666  0.67770875     0.12600
H2265       H  0.84208926  0.41539909  0.67730985     0.12600
H2266       H  0.88009376  0.35254908  0.74740739     0.25900
H2267       H  0.88117300  0.41159902  0.74695205     0.25900
N2268       N  0.60902768  0.11878377  0.21806153    -0.36900
N2269       N  0.61724998  0.06760656  0.24885958    -0.57400
N2270       N  0.64115724  0.12031849  0.27521255    -0.36900
N2271       N  0.62986578  0.17143073  0.24520683    -0.57400
C2272       C  0.59367768  0.09165494  0.21006947     0.26700
C2273       C  0.59817657  0.14725204  0.20886024     0.26700
C2274       C  0.63910951  0.09375035  0.28786843     0.26700
C2275       C  0.64483937  0.14918993  0.28601028     0.26700
C2276       C  0.61151934  0.04661764  0.23345922     0.35300
C2277       C  0.62771701  0.04735187  0.26360990     0.35300
C2278       C  0.62839220  0.18991688  0.22852589     0.35300
C2279       C  0.64600004  0.19071456  0.25833270     0.35300
C2280       C  0.57334101  0.10279247  0.19532806    -0.22200
C2281       C  0.57583390  0.13796319  0.19474364    -0.22200
C2282       C  0.64231130  0.10571098  0.30694444    -0.22200
C2283       C  0.64565294  0.14075996  0.30578999    -0.22200
C2284       C  0.61768111  0.01290022  0.23858537    -0.23200
C2285       C  0.62782812  0.01335542  0.25770101    -0.23200
C2286       C  0.64402335  0.22096129  0.23097107    -0.23200
C2287       C  0.65515055  0.22149466  0.24991800    -0.23200
C2288       C  0.59859578  0.05703651  0.21527631    -0.18600
C2289       C  0.60947276  0.18102599  0.21214988    -0.18600
C2290       C  0.64917924  0.18260220  0.27838196    -0.18600
C2291       C  0.63663150  0.05883364  0.28251662    -0.18600
H2292       H  0.55809480  0.08721459  0.18607310     0.14300
H2293       H  0.56298400  0.15468430  0.18483340     0.14300
H2294       H  0.64238616  0.09072177  0.32030342     0.14300
H2295       H  0.64889442  0.15796110  0.31811265     0.14300
H2296       H  0.61481775  0.49011503  0.22958754     0.12600
H2297       H  0.63442654  0.49106271  0.26628905     0.12600
H2298       H  0.64624529  0.24150178  0.22040019     0.12600
H2299       H  0.66766800  0.24251094  0.25689913     0.12600
H2300       H  0.62819581  0.11741807  0.22768554     0.25900
H2301       H  0.64350712  0.11835202  0.26015924     0.25900
N2302       N  0.86191678  0.17093751  0.24799609    -0.36900
N2303       N  0.84671124  0.11986315  0.27719971    -0.57400
N2304       N  0.86420144  0.06678371  0.24916342    -0.36900
N2305       N  0.88126068  0.11810558  0.22047317    -0.57400
C2306       C  0.85982842  0.19025363  0.26445625     0.26700
C2307       C  0.87812579  0.18950738  0.23453014     0.26700
C2308       C  0.86173499  0.04832138  0.26588259     0.26700
C2309       C  0.88018860  0.04729983  0.23593338     0.26700
C2310       C  0.83313905  0.14762505  0.28566558     0.35300
C2311       C  0.83426898  0.09221475  0.28630273     0.35300
C2312       C  0.88199856  0.14541900  0.20835191     0.35300
C2313       C  0.88347704  0.09000159  0.20897351     0.35300
C2314       C  0.87498220  0.22138503  0.26146503    -0.22200
C2315       C  0.88642284  0.22099023  0.24251724    -0.22200
C2316       C  0.87623003  0.01665126  0.26322274    -0.22200
C2317       C  0.88783543  0.01599099  0.24430545    -0.22200
C2318       C  0.81194930  0.13764346  0.30024887    -0.23200
C2319       C  0.81257400  0.10241413  0.30060689    -0.23200
C2320       C  0.88493974  0.13469808  0.18901820    -0.23200
C2321       C  0.88575082  0.09949020  0.18940249    -0.23200
C2322       C  0.84171830  0.18172118  0.28128004    -0.18600
C2323       C  0.88323024  0.17975109  0.21479487    -0.18600
C2324       C  0.88610287  0.05617306  0.21612676    -0.18600
C2325       C  0.84428281  0.05818996  0.28281277    -0.18600
H2326       H  0.87685011  0.24253306  0.27169842     0.14300
H2327       H  0.89890298  0.24180663  0.23535770     0.14300
H2328       H  0.87813091  0.49596262  0.27361137     0.14300
H2329       H  0.90025772  0.49475948  0.23727064     0.14300
H2330       H  0.79783678  0.15402226  0.30975216     0.12600
H2331       H  0.79911120  0.08618209  0.31049493     0.12600
H2332       H  0.88696779  0.15057747  0.17606200     0.12600
H2333       H  0.88850712  0.08282519  0.17679023     0.12600
H2334       H  0.84928905  0.14848941  0.24523220     0.25900
H2335       H  0.85217476  0.08947995  0.24620293     0.25900
N2336       N  0.95514799  0.30487669  0.09244028    -0.06400
N2337       N  0.93005954  0.28506387  0.08886504    -0.58500
N2338       N  0.02938110  0.32985477  0.08049886    -0.06100
N2339       N  0.55439508  0.32763510  0.06884653    -0.60600
N2340       N  0.02980876  0.30540540  0.09371163    -0.05700
N2341       N  0.55556165  0.28599085  0.09128787    -0.58500
N2342       N  0.95662842  0.32944064  0.07934543    -0.05400
N2343       N  0.93309178  0.32698101  0.06669416    -0.61000
C2344       C  0.91667498  0.29923092  0.07257840     0.95800
C2345       C  0.57073229  0.30033495  0.07567633     0.95600
N2346       N  0.02909485  0.43243453  0.09491097    -0.06600
N2347       N  0.55558065  0.45098262  0.09368243    -0.59100
N2348       N  0.95504492  0.40795481  0.08044116    -0.04700
N2349       N  0.92901069  0.40884687  0.06955179    -0.60300
N2350       N  0.95414130  0.43191178  0.09399325    -0.06600
N2351       N  0.92739030  0.44989828  0.09252783    -0.59400
N2352       N  0.02906509  0.40856724  0.08131285    -0.04300
N2353       N  0.55527129  0.41010224  0.07063019    -0.60400
Mn2354     Mn  0.99254989  0.36910503  0.07982446     1.18400
C2355       C  0.57172448  0.43639107  0.07851334     1.02300
C2356       C  0.91197381  0.43495513  0.07727702     0.98500
N2357       N  0.52679141  0.30353727  0.14010320    -0.06600
N2358       N  0.54695861  0.27888873  0.14485451    -0.62900
N2359       N  0.95316298  0.32618304  0.15296217    -0.05400
N2360       N  0.93352140  0.31655269  0.16713425    -0.63600
N2361       N  0.95400433  0.30272011  0.13904988    -0.06100
N2362       N  0.93487713  0.27700610  0.14355465    -0.63200
N2363       N  0.52599387  0.32704386  0.15397779    -0.05000
N2364       N  0.54555367  0.31860803  0.16839345    -0.63900
Mn2365     Mn  0.99140531  0.30292156  0.11620442     1.10700
C2366       C  0.55859478  0.28849809  0.16257142     0.99100
C2367       C  0.92182989  0.28600153  0.16100691     0.99200
N2368       N  0.95332042  0.43230792  0.13989446    -0.06100
N2369       N  0.93397703  0.45776171  0.14448266    -0.61500
N2370       N  0.52532545  0.40892308  0.15472600    -0.05500
N2371       N  0.54392384  0.41799115  0.16952081    -0.58200
N2372       N  0.52598953  0.43257928  0.14098868    -0.06800
N2373       N  0.54516683  0.45784878  0.14612170    -0.61100
N2374       N  0.95255170  0.40859726  0.15359557    -0.05800
N2375       N  0.93277036  0.41793500  0.16781166    -0.58300
Mn2376     Mn  0.99070059  0.43340547  0.11725374     1.20200
Mn2377     Mn  0.98918148  0.36762727  0.15426438     1.10100
Cl2378     Cl  0.99093385  0.36819995  0.11699823    -0.86200
C2379       C  0.92089527  0.44852376  0.16183195     0.96100
C2380       C  0.55643804  0.44844424  0.16389464     0.95900
C2381       C  0.93462565  0.49892829  0.18196133    -0.20600
C2382       C  0.91142867  0.47504958  0.17607869    -0.07100
C2383       C  0.88007739  0.97779627  0.18337772     0.13700
C2384       C  0.87237982  0.00451993  0.19639894    -0.20600
C2385       C  0.89560378  0.02846863  0.20227299    -0.07200
C2386       C  0.92731826  0.02544938  0.19520342     0.13700
C2387       C  0.95343495  0.04948312  0.20184829    -0.24000
H2388       H  0.95867651  0.49696978  0.17609325     0.15000
H2389       H  0.84814000  0.00692153  0.20196974     0.15000
C2390       C  0.85457517  0.95292499  0.17701399    -0.23900
H2391       H  0.97690898  0.54230195  0.19544390     0.05200
H2392       H  0.95563480  0.04850549  0.21808565     0.08500
H2393       H  0.94786983  0.07607335  0.19728986     0.08500
H2394       H  0.86134714  0.42651548  0.18115028     0.08400
H2395       H  0.85150335  0.45410096  0.16068272     0.08400
H2396       H  0.83109768  0.95876770  0.18395772     0.05200
C2397       C  0.92466287  0.21599770  0.19934180    -0.20600
C2398       C  0.89231748  0.20673568  0.20054591    -0.07100
C2399       C  0.86937420  0.22406901  0.18894149     0.13700
C2400       C  0.87955531  0.25012766  0.17618784    -0.20600
C2401       C  0.91189498  0.25951148  0.17511548    -0.07200
C2402       C  0.93471054  0.24242951  0.18690379     0.13700
C2403       C  0.96962886  0.25217036  0.18646522    -0.24000
H2404       H  0.94200471  0.20277044  0.20843935     0.15000
H2405       H  0.86215841  0.26323691  0.16707316     0.15000
C2406       C  0.83413599  0.21577282  0.18971152    -0.23900
H2407       H  0.98413906  0.23623190  0.19662723     0.05200
H2408       H  0.97222268  0.27931899  0.19100395     0.08500
H2409       H  0.97940850  0.24883897  0.17141592     0.08500
H2410       H  0.82054110  0.23889583  0.19431416     0.08400
H2411       H  0.82841979  0.19488193  0.20014452     0.08400
H2412       H  0.82585824  0.20777272  0.17490565     0.05200
C2413       C  0.55958677  0.51224521  0.20585589    -0.20600
C2414       C  0.58791702  0.02986277  0.20150928    -0.07100
C2415       C  0.60662444  0.01965613  0.18518850     0.13700
C2416       C  0.59589121  0.99264677  0.17330508    -0.20600
C2417       C  0.56785975  0.47447353  0.17790872    -0.07200
C2418       C  0.54945255  0.48440755  0.19443642     0.13700
C2419       C  0.51890311  0.46623485  0.19994891    -0.24000
H2420       H  0.54561383  0.52012312  0.21851959     0.15000
H2421       H  0.60975658  0.98527733  0.16049042     0.15000
C2422       C  0.63821956  0.03613812  0.18014195    -0.23900
H2423       H  0.50658467  0.47887352  0.21249340     0.05200
H2424       H  0.52433529  0.43947830  0.20429546     0.08500
H2425       H  0.50224124  0.46602562  0.18729295     0.08500
H2426       H  0.64503673  0.05683701  0.19047557     0.08400
H2427       H  0.63694498  0.04723546  0.16516149     0.08400
H2428       H  0.65744457  0.01645960  0.18044749     0.05200
C2429       C  0.59288120  0.23754765  0.16758078    -0.20600
C2430       C  0.57396203  0.26351486  0.17600962    -0.07100
C2431       C  0.56827057  0.26302437  0.19655870     0.13700
C2432       C  0.57989830  0.23552968  0.20767982    -0.20600
C2433       C  0.59835233  0.20934905  0.19916189    -0.07200
C2434       C  0.60581579  0.21099484  0.17893899     0.13700
C2435       C  0.62754127  0.18553925  0.16890825    -0.24000
H2436       H  0.59781983  0.23805795  0.15193946     0.15000
H2437       H  0.57460263  0.23436633  0.22326356     0.15000
C2438       C  0.54961679  0.29066536  0.20703283    -0.23900
H2439       H  0.61390755  0.17149582  0.15744994     0.05200
H2440       H  0.63804439  0.16662853  0.17916489     0.08500
H2441       H  0.64772176  0.19934367  0.16182469     0.08500
H2442       H  0.52503005  0.29233979  0.20102195     0.08400
H2443       H  0.06201725  0.31564748  0.20532799     0.08400
H2444       H  0.04747890  0.28556262  0.22302314     0.05200
C2445       C  0.55479641  0.47215369  0.80673263    -0.20600
C2446       C  0.58481218  0.47256821  0.79737800    -0.07100
C2447       C  0.60769116  0.49753848  0.80312039     0.13700
C2448       C  0.59956068  0.52177144  0.81761194    -0.20600
C2449       C  0.56991739  0.02079247  0.82726871    -0.07200
C2450       C  0.54729078  0.99545670  0.82189193     0.13700
C2451       C  0.51512080  0.99280567  0.83191945    -0.24000
H2452       H  0.53736238  0.95303336  0.80253676     0.15000
H2453       H  0.61680389  0.54127575  0.82171708     0.15000
C2454       C  0.64109426  0.49902003  0.79471360    -0.23900
H2455       H  0.49951453  0.97333841  0.82484468     0.05200
H2456       H  0.50251269  0.01777573  0.83142114     0.08500
H2457       H  0.51846510  0.98521615  0.84748028     0.08500
H2458       H  0.64641369  0.47783283  0.78439223     0.08400
H2459       H  0.65882386  0.49738867  0.80682210     0.08400
H2460       H  0.64446817  0.52368035  0.78687726     0.05200
C2461       C  0.59776467  0.24342743  0.81574972    -0.20600
C2462       C  0.56729255  0.24169282  0.82427905    -0.07100
C2463       C  0.54372752  0.26633876  0.81923920     0.13700
C2464       C  0.55109497  0.29156468  0.80534508    -0.20600
C2465       C  0.58164627  0.29346763  0.79692900    -0.07200
C2466       C  0.60547718  0.26955684  0.80241740     0.13700
C2467       C  0.63924752  0.27227415  0.79471793    -0.24000
H2468       H  0.61577940  0.22479815  0.81991423     0.15000
H2469       H  0.53308824  0.31018997  0.80114495     0.15000
C2470       C  0.51081360  0.26629937  0.82844641    -0.23900
H2471       H  0.65507347  0.25233706  0.80112484     0.05200
H2472       H  0.64928718  0.29774660  0.79857162     0.08500
H2473       H  0.63959892  0.26907019  0.77853768     0.08500
H2474       H  0.51262414  0.27247718  0.84431574     0.08400
H2475       H  0.49954119  0.24079395  0.82668810     0.08400
H2476       H  0.49477997  0.28564896  0.82163906     0.05200
C2477       C  0.89451654  0.50126022  0.82881284    -0.20600
C2478       C  0.91897568  0.02392294  0.82293106    -0.07100
C2479       C  0.93164773  0.02106772  0.80359695     0.13700
C2480       C  0.92078280  0.49465607  0.79127148    -0.20600
C2481       C  0.89684069  0.47184809  0.79729444    -0.07200
C2482       C  0.88272249  0.47592435  0.81601148     0.13700
C2483       C  0.85457651  0.45433537  0.82221109    -0.24000
H2484       H  0.88427148  0.50384972  0.84337699     0.15000
H2485       H  0.93099587  0.49175487  0.77670988     0.15000
C2486       C  0.95696559  0.04504680  0.79578639    -0.23900
H2487       H  0.84559655  0.46182713  0.83696657     0.05200
H2488       H  0.86143366  0.42692666  0.82280133     0.08500
H2489       H  0.83470535  0.45761300  0.81153825     0.08500
H2490       H  0.97844076  0.04461009  0.80531912     0.08400
H2491       H  0.94728688  0.07148293  0.79501368     0.08400
H2492       H  0.96476833  0.03783704  0.78073019     0.05200
C2493       C  0.91696803  0.26701713  0.79015084    -0.20600
C2494       C  0.89573035  0.29190083  0.79743826    -0.07100
C2495       C  0.88415526  0.28882580  0.81689120     0.13700
C2496       C  0.89540313  0.26201815  0.82875835    -0.20600
C2497       C  0.91685424  0.23722189  0.82155199    -0.07200
C2498       C  0.92738997  0.23950374  0.80178502     0.13700
C2499       C  0.95015502  0.21384211  0.79282276    -0.24000
H2500       H  0.92548783  0.26926562  0.77515727     0.15000
H2501       H  0.88710809  0.26033459  0.84382938     0.15000
C2502       C  0.85963681  0.31288751  0.82554177    -0.23900
H2503       H  0.95629365  0.22040904  0.77740307     0.05200
H2504       H  0.93893648  0.18808264  0.79269045     0.08500
H2505       H  0.97284154  0.21300769  0.80124868     0.08500
H2506       H  0.83859840  0.29797031  0.83068193     0.08400
H2507       H  0.85078286  0.33209114  0.81489467     0.08400
H2508       H  0.87023479  0.32664454  0.83825622     0.05200
C2509       C  0.65197960  0.25774796  0.06588032    -0.20600
C2510       C  0.65832108  0.27004743  0.04690775    -0.07100
C2511       C  0.63698080  0.29367099  0.03823348     0.13700
C2512       C  0.60844621  0.30170915  0.04784202    -0.20600
C2513       C  0.60128270  0.28880866  0.06659741    -0.07200
C2514       C  0.62393591  0.26737706  0.07604110     0.13700
C2515       C  0.61918385  0.25507754  0.09679025    -0.24000
H2516       H  0.66877439  0.24012733  0.07259474     0.15000
H2517       H  0.59182488  0.31881932  0.04054972     0.15000
C2518       C  0.64361789  0.31122794  0.01890342    -0.23900
H2519       H  0.64005059  0.24000899  0.10205502     0.05200
H2520       H  0.59774734  0.23835308  0.09763000     0.08500
H2521       H  0.61619135  0.27737867  0.10678081     0.08500
H2522       H  0.62569014  0.30295405  0.00783098     0.08400
H2523       H  0.66793774  0.30599054  0.01309700     0.08400
H2524       H  0.64177923  0.33940250  0.02090467     0.05200
C2525       C  0.84767459  0.28967028  0.03661174    -0.20600
C2526       C  0.82825059  0.26603361  0.04640478    -0.07100
C2527       C  0.83757987  0.25344873  0.06492158     0.13700
C2528       C  0.86639096  0.26505008  0.07325238    -0.20600
C2529       C  0.88639397  0.28812778  0.06320130    -0.07200
C2530       C  0.87694626  0.30024774  0.04437700     0.13700
C2531       C  0.89776144  0.32286079  0.03164658    -0.24000
H2532       H  0.84034845  0.29875252  0.02224579     0.15000
H2533       H  0.87351564  0.25561760  0.08755370     0.15000
C2534       C  0.81793374  0.22690428  0.07549189    -0.23900
H2535       H  0.88711046  0.32709972  0.01689825     0.05200
H2536       H  0.92148133  0.31058478  0.02935474     0.08500
H2537       H  0.90075608  0.34848169  0.03841677     0.08500
H2538       H  0.81542410  0.20376876  0.06611494     0.08400
H2539       H  0.79381921  0.23721994  0.07893713     0.08400
H2540       H  0.82928383  0.21909370  0.08953644     0.05200
C2541       C  0.63940464  0.25384295  0.94739019    -0.20600
C2542       C  0.65980505  0.22628548  0.95163389    -0.07100
C2543       C  0.65257307  0.19325729  0.94458010     0.13700
C2544       C  0.62352663  0.18790504  0.93484712    -0.20600
C2545       C  0.60191437  0.21493258  0.93183721    -0.07200
C2546       C  0.61044954  0.24856365  0.93737428     0.13700
C2547       C  0.58826592  0.27836763  0.93390342    -0.24000
H2548       H  0.64537346  0.27913514  0.95287106     0.15000
H2549       H  0.61700866  0.16220319  0.93029654     0.15000
C2550       C  0.67473015  0.16345748  0.94823019    -0.23900
H2551       H  0.59849292  0.30272087  0.93956862     0.05200
H2552       H  0.56505441  0.27386044  0.94144776     0.08500
H2553       H  0.58403753  0.28141358  0.91790876     0.08500
H2554       H  0.67792199  0.15970061  0.96426001     0.08400
H2555       H  0.69841266  0.16861353  0.94141063     0.08400
H2556       H  0.66521016  0.13927765  0.94189697     0.05200
C2557       C  0.87852273  0.24527562  0.93799828    -0.20600
C2558       C  0.88067965  0.21324744  0.92884903    -0.07100
C2559       C  0.85453867  0.19035290  0.92945693     0.13700
C2560       C  0.82744968  0.19913786  0.94046342    -0.20600
C2561       C  0.82630526  0.22998725  0.95095434    -0.07200
C2562       C  0.85155438  0.25389949  0.94923381     0.13700
C2563       C  0.85043656  0.28794979  0.95967325    -0.24000
H2564       H  0.89879779  0.26260036  0.93739766     0.15000
H2565       H  0.80779093  0.18113660  0.94177207     0.15000
C2566       C  0.85533659  0.15655156  0.91870932    -0.23900
H2567       H  0.87196260  0.30368710  0.95641922     0.05200
H2568       H  0.84934324  0.28410673  0.97580057     0.08500
H2569       H  0.82895184  0.30244757  0.95486288     0.08500
H2570       H  0.87494420  0.14020237  0.92438983     0.08400
H2571       H  0.85923749  0.16112487  0.90279717     0.08400
H2572       H  0.83252596  0.14221383  0.92046184     0.05200
C2573       C  0.65372683  0.43430059  0.05471884    -0.20600
C2574       C  0.65806548  0.46902283  0.05045170    -0.07100
C2575       C  0.63625607  0.49348007  0.05793304     0.13700
C2576       C  0.60914675  0.48230767  0.06833913    -0.20600
C2577       C  0.60332069  0.44728243  0.07108202    -0.07200
C2578       C  0.62659638  0.42303854  0.06494873     0.13700
C2579       C  0.62306176  0.38526426  0.06902533    -0.24000
H2580       H  0.67093339  0.41580880  0.04920018     0.15000
H2581       H  0.59185694  0.00093602  0.07351486     0.15000
C2582       C  0.64170104  0.03122631  0.05477286    -0.23900
H2583       H  0.64482648  0.37067489  0.06469500     0.05200
H2584       H  0.60279784  0.37466075  0.06048711     0.08500
H2585       H  0.61896788  0.38104981  0.08495743     0.08500
H2586       H  0.64127525  0.03708563  0.03883473     0.08400
H2587       H  0.66527688  0.03883303  0.06093116     0.08400
H2588       H  0.62285944  0.04689064  0.06202664     0.05200
C2589       C  0.87645331  0.47990470  0.06415577    -0.20600
C2590       C  0.88063053  0.44564492  0.06962004    -0.07100
C2591       C  0.85595884  0.42161377  0.06603633     0.13700
C2592       C  0.82889889  0.43181340  0.05538703    -0.20600
C2593       C  0.82587031  0.46548942  0.04860014    -0.07200
C2594       C  0.84927516  0.49015509  0.05360838     0.13700
C2595       C  0.84581467  0.52709224  0.04755780    -0.24000
H2596       H  0.89522844  0.49829946  0.06728070     0.15000
H2597       H  0.81044731  0.41328249  0.05183237     0.15000
C2598       C  0.85774182  0.38548627  0.07375260    -0.23900
H2599       H  0.86582571  0.54304878  0.05320519     0.05200
H2600       H  0.82262118  0.03738834  0.05383541     0.08500
H2601       H  0.84571619  0.52924668  0.03131598     0.08500
H2602       H  0.86062485  0.38602881  0.08995954     0.08400
H2603       H  0.87825480  0.37172159  0.06714641     0.08400
H2604       H  0.83571680  0.37069643  0.07029209     0.05200
C2605       C  0.61282090  0.07810239  0.95364557    -0.20600
C2606       C  0.60199840  0.05850458  0.93754381    -0.07100
C2607       C  0.62095637  0.03047197  0.93105506     0.13700
C2608       C  0.64892216  0.02185366  0.94147969    -0.20600
C2609       C  0.65832296  0.04041945  0.95812933    -0.07200
C2610       C  0.64053720  0.06928609  0.96403414     0.13700
C2611       C  0.65051356  0.09034829  0.98158122    -0.24000
H2612       H  0.59911912  0.10007870  0.95857262     0.15000
H2613       H  0.66291706  0.99971206  0.93710867     0.15000
C2614       C  0.61195991  0.00915349  0.91345360    -0.23900
H2615       H  0.63443295  0.11267583  0.98391097     0.05200
H2616       H  0.67523375  0.10009409  0.97935493     0.08500
H2617       H  0.64988708  0.07440229  0.99505729     0.08500
H2618       H  0.61050483  0.02565140  0.90021681     0.08400
H2619       H  0.58820224  0.49603806  0.91626182     0.08400
H2620       H  0.62949182  0.48818402  0.91063115     0.05200
C2621       C  0.84446002  0.06027422  0.96500082    -0.20600
C2622       C  0.82708434  0.03305238  0.95706007    -0.07100
C2623       C  0.83801949  0.01717563  0.93963651     0.13700
C2624       C  0.86646743  0.02883629  0.93071101    -0.20600
C2625       C  0.88439956  0.05593980  0.93879523    -0.07200
C2626       C  0.87288047  0.07193902  0.95632841     0.13700
C2627       C  0.89028347  0.10070958  0.96666773    -0.24000
H2628       H  0.83599923  0.07190443  0.97853126     0.15000
H2629       H  0.87476886  0.01638231  0.91740641     0.15000
C2630       C  0.82059783  0.98753806  0.93035765    -0.23900
H2631       H  0.87786638  0.10885177  0.98034622     0.05200
H2632       H  0.89157774  0.12358790  0.95707556     0.08500
H2633       H  0.91469066  0.09222039  0.97093322     0.08500
H2634       H  0.81372360  0.99435162  0.91510722     0.08400
H2635       H  0.79849345  0.98043271  0.93842005     0.08400
H2636       H  0.83658760  0.96480791  0.92995014     0.05200
C2637       C  0.67979269  0.01619677  0.69340406    -0.20600
C2638       C  0.66332123  0.02046173  0.67560038    -0.07100
C2639       C  0.63734002  0.99872429  0.67109699     0.13700
C2640       C  0.62872914  0.47283897  0.68444478    -0.20600
C2641       C  0.64547846  0.46841512  0.70211479    -0.07200
C2642       C  0.67162983  0.49000866  0.70653917     0.13700
C2643       C  0.69136491  0.48489923  0.72483567    -0.24000
H2644       H  0.69967365  0.03295291  0.69686620     0.15000
H2645       H  0.60852958  0.45630981  0.68125074     0.15000
C2646       C  0.61823636  0.00339607  0.65254314    -0.23900
H2647       H  0.71157138  0.50335837  0.72565299     0.05200
H2648       H  0.70154298  0.45861326  0.72488310     0.08500
H2649       H  0.67631412  0.48850755  0.73811439     0.08500
H2650       H  0.63384189  0.99945067  0.63952993     0.08400
H2651       H  0.60808105  0.02968566  0.65214175     0.08400
H2652       H  0.59836385  0.48447544  0.65152498     0.05200
C2653       C  0.65525549  0.26307498  0.70945966    -0.20600
C2654       C  0.63547147  0.28894782  0.70184854    -0.07100
C2655       C  0.62429744  0.28607620  0.68231151     0.13700
C2656       C  0.63438779  0.25829116  0.67073117    -0.20600
C2657       C  0.65442064  0.23251996  0.67827078    -0.07200
C2658       C  0.66420042  0.23448832  0.69818566     0.13700
C2659       C  0.68419218  0.20707249  0.70781731    -0.24000
H2660       H  0.66339549  0.26513924  0.72453361     0.15000
H2661       H  0.62658656  0.25681610  0.65556053     0.15000
C2662       C  0.60155435  0.31150192  0.67322407    -0.23900
H2663       H  0.68978020  0.21340339  0.72335094     0.05200
H2664       H  0.70726626  0.20387839  0.70000382     0.08500
H2665       H  0.67090549  0.18245223  0.70773216     0.08500
H2666       H  0.61323167  0.32381872  0.66039001     0.08400
H2667       H  0.59386689  0.33186154  0.68354625     0.08400
H2668       H  0.57966554  0.29796340  0.66816546     0.05200
C2669       C  0.85118444  0.02161006  0.68179927    -0.20600
C2670       C  0.81893641  0.02414359  0.67639435    -0.07100
C2671       C  0.79635675  0.50040984  0.68402471     0.13700
C2672       C  0.80690450  0.47432578  0.69660709    -0.20600
C2673       C  0.83926006  0.47153489  0.70189628    -0.07200
C2674       C  0.86160236  0.49564032  0.69454082     0.13700
C2675       C  0.89671719  0.49454288  0.69960749    -0.24000
H2676       H  0.86829213  0.03987679  0.67598481     0.15000
H2677       H  0.78981852  0.45615200  0.70253257     0.15000
C2678       C  0.76124393  0.50291040  0.67909213    -0.23900
H2679       H  0.90365549  0.01865145  0.70713377     0.05200
H2680       H  0.90307564  0.47278471  0.70927622     0.08500
H2681       H  0.91104005  0.49210071  0.68592137     0.08500
H2682       H  0.75770135  0.99951953  0.66306434     0.08400
H2683       H  0.75228321  0.02864258  0.68348561     0.08400
H2684       H  0.74691087  0.48312426  0.68684726     0.05200
C2685       C  0.84754532  0.24296533  0.68253666    -0.20600
C2686       C  0.81484135  0.23997127  0.67827538    -0.07100
C2687       C  0.79275171  0.26315721  0.68677295     0.13700
C2688       C  0.80401374  0.28945743  0.69894544    -0.20600
C2689       C  0.83674389  0.29288393  0.70292678    -0.07200
C2690       C  0.85878764  0.26920938  0.69488132     0.13700
C2691       C  0.89407839  0.27192744  0.69919036    -0.24000
H2692       H  0.86430530  0.22504474  0.67598841     0.15000
H2693       H  0.78724764  0.30731015  0.70555700     0.15000
C2694       C  0.75725209  0.25982131  0.68329578    -0.23900
H2695       H  0.90800572  0.25161758  0.69155872     0.05200
H2696       H  0.89828617  0.26929683  0.71521192     0.08500
H2697       H  0.90314064  0.29720384  0.69422016     0.08500
H2698       H  0.74936937  0.23395611  0.68784291     0.08400
H2699       H  0.75173565  0.26351453  0.66751017     0.08400
H2700       H  0.74329730  0.27899964  0.69183019     0.05200
C2701       C  0.68636289  0.49452089  0.31107450    -0.20600
C2702       C  0.66306552  0.47975445  0.32322601    -0.07100
C2703       C  0.63063443  0.99001188  0.32160253     0.13700
C2704       C  0.62259038  0.01642145  0.30848118    -0.20600
C2705       C  0.64625875  0.03258292  0.29711675    -0.07200
C2706       C  0.67849787  0.52070211  0.29791366     0.13700
C2707       C  0.70478669  0.53469679  0.28498529    -0.24000
H2708       H  0.71093680  0.48562800  0.31192031     0.15000
H2709       H  0.59781401  0.02428631  0.30690950     0.15000
C2710       C  0.60486533  0.97278469  0.33349551    -0.23900
H2711       H  0.72421069  0.54536541  0.29429230     0.05200
H2712       H  0.69686956  0.05763826  0.27644410     0.08500
H2713       H  0.71479111  0.51368977  0.27582245     0.08500
H2714       H  0.60978840  0.97625268  0.34940017     0.08400
H2715       H  0.60440662  0.94498150  0.33002710     0.08400
H2716       H  0.58080941  0.98358338  0.33029105     0.05200
C2717       C  0.63829297  0.26024187  0.31151379    -0.20600
C2718       C  0.66885945  0.26307864  0.31972447    -0.07100
C2719       C  0.69355606  0.24050841  0.31365757     0.13700
C2720       C  0.68661023  0.21462116  0.30002256    -0.20600
C2721       C  0.65573604  0.21110187  0.29226794    -0.07200
C2722       C  0.63141254  0.23448931  0.29776545     0.13700
C2723       C  0.59810570  0.23196230  0.28936519    -0.24000
H2724       H  0.61969127  0.27796617  0.31605905     0.15000
H2725       H  0.70521601  0.19693097  0.29543177     0.15000
C2726       C  0.72729451  0.24392045  0.32131450    -0.23900
H2727       H  0.58187575  0.25167971  0.29567926     0.05200
H2728       H  0.58786339  0.20635557  0.29261510     0.08500
H2729       H  0.59882626  0.23579690  0.27322848     0.08500
H2730       H  0.72780614  0.23942135  0.33738926     0.08400
H2731       H  0.73645880  0.27001977  0.31816170     0.08400
H2732       H  0.74375357  0.22511022  0.31433506     0.05200
C2733       C  0.83938681  0.00219595  0.32856412    -0.20600
C2734       C  0.81791725  0.47683097  0.32233301    -0.07100
C2735       C  0.80525077  0.47837242  0.30299330     0.13700
C2736       C  0.81360800  0.00579010  0.29082384    -0.20600
C2737       C  0.83516109  0.03101281  0.29704950    -0.07200
C2738       C  0.84855162  0.02906293  0.31606411     0.13700
C2739       C  0.87298148  0.05475610  0.32303702    -0.24000
H2740       H  0.84916125  0.00092984  0.34329267     0.15000
H2741       H  0.80365353  0.00746135  0.27615013     0.15000
C2742       C  0.78178958  0.45233035  0.29517987    -0.23900
H2743       H  0.88203087  0.04842582  0.33793066     0.05200
H2744       H  0.86225811  0.08070433  0.32374813     0.08500
H2745       H  0.89370686  0.05507235  0.31280232     0.08500
H2746       H  0.76029471  0.45129645  0.30477188     0.08400
H2747       H  0.79333236  0.42674498  0.29442366     0.08400
H2748       H  0.77354505  0.45875137  0.28012016     0.05200
C2749       C  0.80426071  0.26242159  0.30313889    -0.20600
C2750       C  0.81692095  0.26211473  0.32225540    -0.07100
C2751       C  0.83830725  0.23565166  0.32766611     0.13700
C2752       C  0.84599940  0.20995399  0.31396841    -0.20600
C2753       C  0.83237732  0.20961695  0.29513075    -0.07200
C2754       C  0.81108618  0.23617491  0.28967533     0.13700
C2755       C  0.79431441  0.23714823  0.27006727    -0.24000
H2756       H  0.78765427  0.28244491  0.29890055     0.15000
H2757       H  0.86264230  0.18982152  0.31797970     0.15000
C2758       C  0.85366607  0.23479396  0.34768487    -0.23900
H2759       H  0.76798207  0.23776264  0.27243715     0.05200
H2760       H  0.79961697  0.21461882  0.26070648     0.08500
H2761       H  0.80155976  0.26058422  0.26198781     0.08500
H2762       H  0.83517110  0.23110329  0.35919449     0.08400
H2763       H  0.86663452  0.25916952  0.35039999     0.08400
H2764       H  0.87114251  0.21345120  0.34899522     0.05200
C2765       C  0.57652268  0.19169675  0.55404972    -0.20600
C2766       C  0.57119316  0.22595467  0.54908057    -0.07100
C2767       C  0.59235567  0.25158397  0.55575997     0.13700
C2768       C  0.61972533  0.24201782  0.56639133    -0.20600
C2769       C  0.62651105  0.20737747  0.56990115    -0.07200
C2770       C  0.60413847  0.18194028  0.56422456     0.13700
C2771       C  0.60924492  0.14444524  0.56862295    -0.24000
H2772       H  0.55986218  0.17233378  0.54894378     0.15000
H2773       H  0.63678476  0.26139952  0.57092776     0.15000
C2774       C  0.58646510  0.28873050  0.55108632    -0.23900
H2775       H  0.58796277  0.12882440  0.56465460     0.05200
H2776       H  0.61382945  0.14089033  0.58455135     0.08500
H2777       H  0.62973175  0.13437745  0.55999350     0.08500
H2778       H  0.56295612  0.29673568  0.55722077     0.08400
H2779       H  0.58629740  0.29251685  0.53492814     0.08400
H2780       H  0.60529050  0.30550142  0.55744193     0.05200
C2781       C  0.88298213  0.25429064  0.55420704    -0.20600
C2782       C  0.90458425  0.22726072  0.55095400    -0.07100
C2783       C  0.89858070  0.19486091  0.55930830     0.13700
C2784       C  0.87050375  0.18994535  0.57020896    -0.20600
C2785       C  0.84767870  0.21612847  0.57213598    -0.07200
C2786       C  0.85423264  0.24893246  0.56450499     0.13700
C2787       C  0.82989868  0.27734045  0.56583262    -0.24000
H2788       H  0.88762020  0.27894511  0.54748135     0.15000
H2789       H  0.86527046  0.16482695  0.57616827     0.15000
C2790       C  0.92047250  0.16485475  0.55547097    -0.23900
H2791       H  0.83857930  0.30112791  0.55865893     0.05200
H2792       H  0.82479024  0.28322963  0.58147991     0.08500
H2793       H  0.80737287  0.26940291  0.55844480     0.08500
H2794       H  0.94483070  0.17049427  0.56111751     0.08400
H2795       H  0.92181862  0.15975045  0.53943976     0.08400
H2796       H  0.91176427  0.14117914  0.56275852     0.05200
C2797       C  0.61259832  0.31237294  0.44603769    -0.20600
C2798       C  0.62598871  0.29159557  0.43120116    -0.07100
C2799       C  0.60964369  0.26103941  0.42586829     0.13700
C2800       C  0.58199682  0.25115210  0.43642255    -0.20600
C2801       C  0.57009518  0.27120248  0.45191877    -0.07200
C2802       C  0.58503251  0.30259458  0.45636828     0.13700
C2803       C  0.57205222  0.32562944  0.47229213    -0.24000
H2804       H  0.62408908  0.33630315  0.44995835     0.15000
H2805       H  0.57015216  0.22718340  0.43299632     0.15000
C2806       C  0.62123297  0.23837462  0.40942154    -0.23900
H2807       H  0.58639855  0.34934405  0.47370869     0.05200
H2808       H  0.57264664  0.31231309  0.48667118     0.08500
H2809       H  0.54698330  0.33296842  0.46881351     0.08500
H2810       H  0.64560804  0.22864621  0.41277549     0.08400
H2811       H  0.62158304  0.25302357  0.39545871     0.08400
H2812       H  0.60534592  0.21586537  0.40726441     0.05200
C2813       C  0.89389364  0.25296071  0.43603627    -0.20600
C2814       C  0.90031093  0.26677603  0.45470801    -0.07100
C2815       C  0.87892092  0.29113371  0.46278314     0.13700
C2816       C  0.85127837  0.29982784  0.45246635    -0.20600
C2817       C  0.84470409  0.28664809  0.43368990    -0.07200
C2818       C  0.86651256  0.26287148  0.42527498     0.13700
C2819       C  0.86139797  0.24796677  0.40510563    -0.24000
H2820       H  0.91028596  0.23417879  0.42995457     0.15000
H2821       H  0.83480132  0.31769415  0.45930149     0.15000
C2822       C  0.88433020  0.30884228  0.48225951    -0.23900
H2823       H  0.88118583  0.23042765  0.40081068     0.05200
H2824       H  0.86029309  0.26884551  0.39407490     0.08500
H2825       H  0.83879356  0.23302335  0.40480480     0.08500
H2826       H  0.90805698  0.30343132  0.48878737     0.08400
H2827       H  0.86542067  0.30095718  0.49281332     0.08400
H2828       H  0.88298354  0.33701154  0.48026327     0.05200
C2829       C  0.61071130  0.03478197  0.57411123    -0.20600
C2830       C  0.63868564  0.04341620  0.56382642    -0.07100
C2831       C  0.64015887  0.03647904  0.54357000     0.13700
C2832       C  0.61252648  0.02540633  0.53384939    -0.20600
C2833       C  0.58215013  0.02453662  0.54314013    -0.07200
C2834       C  0.58306980  0.02324592  0.56410914     0.13700
C2835       C  0.55819370  0.00517741  0.57635982    -0.24000
H2836       H  0.61061206  0.03629752  0.59001416     0.15000
H2837       H  0.61536176  0.01729773  0.51882131     0.15000
C2838       C  0.67100123  0.03989143  0.53212492    -0.23900
H2839       H  0.57009928  0.98525358  0.58541801     0.05200
H2840       H  0.54021279  0.99148287  0.56735729     0.08500
H2841       H  0.54624711  0.02355655  0.58644330     0.08500
H2842       H  0.68991865  0.02389944  0.53898851     0.08400
H2843       H  0.67883189  0.06702170  0.53184470     0.08400
H2844       H  0.66823076  0.03144037  0.51663017     0.05200
C2845       C  0.89366063  0.06782460  0.53920329    -0.20600
C2846       C  0.90996514  0.03898896  0.54607862    -0.07100
C2847       C  0.89874669  0.02215786  0.56306422     0.13700
C2848       C  0.87071853  0.03402825  0.57244126    -0.20600
C2849       C  0.85311405  0.06187217  0.56494519    -0.07200
C2850       C  0.86530232  0.07932526  0.54809830     0.13700
C2851       C  0.84848391  0.10927994  0.53860491    -0.24000
H2852       H  0.90242568  0.08032993  0.52603815     0.15000
H2853       H  0.86198300  0.02070857  0.58532216     0.15000
C2854       C  0.91564714  0.99090888  0.57079024    -0.23900
H2855       H  0.86192691  0.11935575  0.52575999     0.05200
H2856       H  0.84608542  0.13065375  0.54921610     0.08500
H2857       H  0.82454657  0.10125268  0.53320986     0.08500
H2858       H  0.94067464  0.99750712  0.57477560     0.08400
H2859       H  0.91569449  0.47050996  0.55911230     0.08400
H2860       H  0.90361966  0.98053926  0.58406729     0.05200
C2861       C  0.61896059  0.43577178  0.44916409    -0.20600
C2862       C  0.63068779  0.45379670  0.43277685    -0.07100
C2863       C  0.61315636  0.48249614  0.42580064     0.13700
C2864       C  0.58447285  0.49193941  0.43530503    -0.20600
C2865       C  0.57345423  0.47397534  0.45176226    -0.07200
C2866       C  0.59100820  0.44580841  0.45887624     0.13700
C2867       C  0.58064198  0.42672147  0.47706009    -0.24000
H2868       H  0.63201662  0.41389237  0.45478131     0.15000
H2869       H  0.57104667  0.51402069  0.43028886     0.15000
C2870       C  0.62451707  0.50375003  0.40873008    -0.23900
H2871       H  0.59765348  0.40593553  0.48086009     0.05200
H2872       H  0.55656476  0.41533738  0.47473419     0.08500
H2873       H  0.57979783  0.44441924  0.48981333     0.08500
H2874       H  0.62556854  0.98689642  0.39510892     0.08400
H2875       H  0.64831655  0.51497810  0.41212256     0.08400
H2876       H  0.60788057  0.52525691  0.40556025     0.05200
C2877       C  0.85869421  0.48061676  0.43260738    -0.20600
C2878       C  0.84836476  0.44642854  0.43362977    -0.07100
C2879       C  0.86803262  0.42189188  0.44321008     0.13700
C2880       C  0.89581688  0.43266156  0.45286657    -0.20600
C2881       C  0.90467947  0.46708897  0.45306202    -0.07200
C2882       C  0.88675951  0.49121721  0.44225920     0.13700
C2883       C  0.89710134  0.52810646  0.44125731    -0.24000
H2884       H  0.84420599  0.49929681  0.42489550     0.15000
H2885       H  0.91019342  0.41433691  0.46094849     0.15000
C2886       C  0.86033906  0.38421275  0.44336336    -0.23900
H2887       H  0.88058425  0.54362369  0.43209034     0.05200
H2888       H  0.92145784  0.52966984  0.43472987     0.08500
H2889       H  0.89748070  0.03912271  0.45648704     0.08500
H2890       H  0.85601721  0.37500176  0.42815618     0.08400
H2891       H  0.83905035  0.37940036  0.45271485     0.08400
H2892       H  0.88040624  0.36888760  0.44943794     0.05200
N2893       N  0.94290872  0.00087473  0.49962503    -0.36900
N2894       N  0.49339316  0.51676644  0.52836744    -0.57400
N2895       N  0.53899136  0.50139949  0.49749211    -0.36900
N2896       N  0.48866884  0.98422926  0.46932852    -0.57400
C2897       C  0.92500217  0.50778696  0.51570724     0.26700
C2898       C  0.92289096  0.98780030  0.48577488     0.26700
C2899       C  0.55438078  0.52301658  0.50976536     0.26700
C2900       C  0.55131894  0.00664525  0.47944272     0.26700
C2901       C  0.96802878  0.53004938  0.53809494     0.35300
C2902       C  0.52014664  0.52753003  0.53781515     0.35300
C2903       C  0.96266292  0.97394465  0.45938718     0.35300
C2904       C  0.51425209  0.97586801  0.45829897     0.35300
C2905       C  0.89339378  0.49872597  0.51207220    -0.22200
C2906       C  0.89208388  0.98606154  0.49338981    -0.22200
C2907       C  0.57425661  0.54454897  0.49904012    -0.22200
C2908       C  0.57345507  0.03285904  0.47995776    -0.22200
C2909       C  0.97865136  0.54990083  0.55367183    -0.23200
C2910       C  0.51164508  0.54882683  0.55326491    -0.23200
C2911       C  0.97175223  0.95903746  0.44168504    -0.23200
C2912       C  0.50476242  0.95986426  0.44112902    -0.23200
C2913       C  0.93546272  0.52445333  0.53314696    -0.18600
C2914       C  0.93105375  0.97736970  0.46636212    -0.18600
C2915       C  0.54537323  0.98622548  0.46297444    -0.18600
C2916       C  0.55164724  0.52257497  0.53047982    -0.18600
H2917       H  0.87313260  0.50114029  0.52191791     0.14300
H2918       H  0.87066300  0.97696652  0.48610945     0.14300
H2919       H  0.58881220  0.56536742  0.50457954     0.14300
H2920       H  0.58730379  0.04286419  0.46780789     0.14300
H2921       H  0.96416401  0.56463590  0.56382385     0.12600
H2922       H  0.52742139  0.56388593  0.56243570     0.12600
H2923       H  0.95628199  0.94856716  0.43042930     0.12600
H2924       H  0.51986665  0.95112691  0.42919421     0.12600
H2925       H  0.96670260  0.00779683  0.49774138     0.25900
H2926       H  0.52397372  0.48120780  0.50154796     0.25900
N2927       N  0.93922770  0.74183354  0.50085488    -0.36900
N2928       N  0.48771862  0.73498783  0.53027500    -0.57400
N2929       N  0.53522573  0.74519490  0.49969650    -0.36900
N2930       N  0.48630081  0.75035545  0.46956725    -0.57400
C2931       C  0.92177050  0.72962149  0.51605474     0.26700
C2932       C  0.92131607  0.73810888  0.48447382     0.26700
C2933       C  0.55385491  0.73369630  0.51454638     0.26700
C2934       C  0.55303653  0.74391714  0.48308583     0.26700
C2935       C  0.96215920  0.73667820  0.54235818     0.35300
C2936       C  0.51392242  0.73716603  0.54171311     0.35300
C2937       C  0.95969247  0.76101596  0.46004952     0.35300
C2938       C  0.51160436  0.76255820  0.45933278     0.35300
C2939       C  0.89260479  0.71750422  0.50919383    -0.22200
C2940       C  0.89231219  0.72292493  0.48924750    -0.22200
C2941       C  0.58383037  0.72491656  0.50722027    -0.22200
C2942       C  0.58335653  0.73159214  0.48740487    -0.22200
C2943       C  0.97209077  0.73986518  0.56168869    -0.23200
C2944       C  0.50506790  0.73997452  0.56128987    -0.23200
C2945       C  0.96812395  0.77922317  0.44336509    -0.23200
C2946       C  0.50111986  0.78002844  0.44286138    -0.23200
C2947       C  0.93032547  0.73198669  0.53610126    -0.18600
C2948       C  0.92805941  0.75396348  0.46629216    -0.18600
C2949       C  0.54395393  0.75773064  0.46473463    -0.18600
C2950       C  0.54549966  0.73349191  0.53473344    -0.18600
H2951       H  0.87311284  0.70692887  0.51775199     0.14300
H2952       H  0.87242045  0.71784048  0.47948168     0.14300
H2953       H  0.60430361  0.71564746  0.51538710     0.14300
H2954       H  0.60331869  0.72855559  0.47738754     0.14300
H2955       H  0.95718495  0.74091612  0.57469653     0.12600
H2956       H  0.52072198  0.74134450  0.57393285     0.12600
H2957       H  0.95224432  0.79092947  0.43276645     0.12600
H2958       H  0.51569330  0.79248240  0.43182748     0.12600
H2959       H  0.95955936  0.75707299  0.50198520     0.25900
H2960       H  0.51339666  0.75770762  0.50121041     0.25900
N2961       N  0.77461815  0.80562956  0.40555668    -0.06400
N2962       N  0.80030642  0.78602666  0.40784756    -0.58500
N2963       N  0.69980706  0.83098100  0.41859861    -0.06100
N2964       N  0.67419883  0.82918082  0.42987029    -0.60600
N2965       N  0.69916573  0.80703932  0.40504529    -0.05700
N2966       N  0.67278334  0.78838567  0.40690607    -0.58500
N2967       N  0.77391526  0.82959525  0.41909632    -0.05400
N2968       N  0.79881224  0.82690248  0.43079518    -0.61000
C2969       C  0.81519109  0.79964055  0.42378095     0.95800
C2970       C  0.65734720  0.80251074  0.42255074     0.95600
N2971       N  0.70193560  0.93459122  0.40589237    -0.06600
N2972       N  0.67677372  0.95484556  0.40828498    -0.59100
N2973       N  0.77473712  0.90872591  0.41993004    -0.04700
N2974       N  0.79909274  0.91038680  0.43208733    -0.60300
N2975       N  0.77658527  0.93299978  0.40665126    -0.06600
N2976       N  0.80265048  0.95170644  0.40953466    -0.59400
N2977       N  0.70157911  0.91009627  0.41907291    -0.04300
N2978       N  0.67652404  0.91312149  0.43065863    -0.60400
Mn2979     Mn  0.73747152  0.86974979  0.41972831     1.18400
C2980       C  0.66110275  0.94111530  0.42387987     0.97900
C2981       C  0.81657206  0.93694331  0.42543551     0.98500
N2982       N  0.70203431  0.80668947  0.35865575    -0.06600
N2983       N  0.68450131  0.78057705  0.35276940    -0.62900
N2984       N  0.77522390  0.82876481  0.34555396    -0.05400
N2985       N  0.79386444  0.81899932  0.33087524    -0.63600
N2986       N  0.77449527  0.80489486  0.35918477    -0.06100
N2987       N  0.79280308  0.77880527  0.35402067    -0.63200
N2988       N  0.70288683  0.83049254  0.34498036    -0.05000
N2989       N  0.68611518  0.82056636  0.32955965    -0.63900
Mn2990     Mn  0.73754591  0.80505493  0.38234231     1.10700
C2991       C  0.67449458  0.78946325  0.33462265     0.99100
C2992       C  0.80517175  0.78793156  0.33641416     0.99200
N2993       N  0.77686931  0.93491160  0.36001093    -0.06100
N2994       N  0.79557258  0.96053765  0.35466690    -0.61500
N2995       N  0.70416867  0.91307110  0.34567364    -0.05500
N2996       N  0.68527992  0.92289949  0.33117734    -0.58200
N2997       N  0.70424693  0.93642957  0.35964311    -0.06800
N2998       N  0.68526444  0.96215537  0.35494622    -0.61100
N2999       N  0.77691972  0.91091785  0.34639162    -0.05800
N3000       N  0.79574207  0.91988071  0.33171815    -0.58300
Mn3001     Mn  0.74000439  0.93582707  0.38322153     1.20200
Mn3002     Mn  0.73977910  0.87089624  0.34532467     1.10100
Cl3003     Cl  0.73872388  0.87041471  0.38248684    -0.86200
C3004       C  0.80720779  0.95097664  0.33691086     0.96100
C3005       C  0.67303179  0.95325526  0.33729818     0.95900
N3006       N  0.77398093  0.69900921  0.59564975    -0.06400
N3007       N  0.79935199  0.71922757  0.59419384    -0.58500
N3008       N  0.70112388  0.67127722  0.58160423    -0.06100
N3009       N  0.67582841  0.67233042  0.57015412    -0.60600
N3010       N  0.69935333  0.69483227  0.59535470    -0.05700
N3011       N  0.67250695  0.71260786  0.59349921    -0.58500
N3012       N  0.77456949  0.67555611  0.58180007    -0.05400
N3013       N  0.80014513  0.67907711  0.57069824    -0.61000
C3014       C  0.81520915  0.70649418  0.57839682     0.95800
C3015       C  0.65808375  0.69794150  0.57775595     0.95600
N3016       N  0.70546954  0.56751401  0.59300582    -0.06600
N3017       N  0.68123023  0.54619416  0.59004989    -0.59100
N3018       N  0.77854297  0.59712992  0.58013830    -0.04700
N3019       N  0.80353518  0.59763082  0.56839379    -0.60300
N3020       N  0.78092801  0.57227084  0.59300933    -0.06600
N3021       N  0.80809734  0.55524037  0.59008615    -0.59400
N3022       N  0.70493634  0.59220387  0.57992181    -0.04300
N3023       N  0.68072553  0.58819093  0.56773885    -0.60400
Mn3024     Mn  0.73970590  0.63407577  0.58032758     1.18400
C3025       C  0.66610484  0.55949098  0.57416713     0.97900
C3026       C  0.82198691  0.57148345  0.57453088     0.98500
N3027       N  0.69986650  0.69356837  0.64151201    -0.06600
N3028       N  0.67925269  0.71760535  0.64658772    -0.62900
N3029       N  0.77381867  0.67341930  0.65529451    -0.05400
N3030       N  0.79302533  0.68289403  0.66974740    -0.63600
N3031       N  0.77267262  0.69749252  0.64180068    -0.06100
N3032       N  0.79127422  0.72336243  0.64672960    -0.63200
N3033       N  0.70091473  0.66947180  0.65498003    -0.05000
N3034       N  0.68107053  0.67703753  0.66948723    -0.63900
Mn3035     Mn  0.73641050  0.69730846  0.61844228     1.10700
C3036       C  0.66765535  0.70725959  0.66415012     0.99100
C3037       C  0.80423579  0.71391254  0.66406222     0.99200
N3038       N  0.77884713  0.56815338  0.63967907    -0.06100
N3039       N  0.79812103  0.54274499  0.64447875    -0.61500
N3040       N  0.70507263  0.58762768  0.65359003    -0.05500
N3041       N  0.68597489  0.57738072  0.66786547    -0.58200
N3042       N  0.70622050  0.56441529  0.63953801    -0.06800
N3043       N  0.68767862  0.53816540  0.64406055    -0.61100
N3044       N  0.77751465  0.59086672  0.65399722    -0.05800
N3045       N  0.79578426  0.58089193  0.66877094    -0.58300
Mn3046     Mn  0.74297257  0.56696133  0.61609095     1.20200
Mn3047     Mn  0.73938402  0.63036737  0.65487709     1.10100
Cl3048     Cl  0.73963123  0.63210273  0.61759466    -0.86200
C3049       C  0.80896828  0.55105931  0.66255406     0.96100
C3050       C  0.67480035  0.54669712  0.66167576     0.95900
N3051       N  0.78980779  0.49681402  0.00188878    -0.36900
N3052       N  0.74193961  0.51804952  0.97390650    -0.57400
N3053       N  0.69346270  0.50262217  0.00351865    -0.36900
N3054       N  0.74160194  0.97896299  0.03074145    -0.57400
C3055       C  0.80729451  0.49886176  0.98518908     0.26700
C3056       C  0.80732637  0.97864093  0.01497443     0.26700
C3057       C  0.67529316  0.50745662  0.98732786     0.26700
C3058       C  0.67501985  0.98642379  0.01692892     0.26700
C3059       C  0.76826196  0.53081385  0.96498407     0.35300
C3060       C  0.71649090  0.53400994  0.96583794     0.35300
C3061       C  0.76774402  0.97504911  0.04214068     0.35300
C3062       C  0.71600568  0.97709951  0.04280166     0.35300
C3063       C  0.83599208  0.48148370  0.98756916    -0.22200
C3064       C  0.83610606  0.96881996  0.00642846    -0.22200
C3065       C  0.64487483  0.49424027  0.99048930    -0.22200
C3066       C  0.64477304  0.98085433  0.00911832    -0.22200
C3067       C  0.75954507  0.55470840  0.95095047    -0.23200
C3068       C  0.72657483  0.55669632  0.95146548    -0.23200
C3069       C  0.75874716  0.97010108  0.06153867    -0.23200
C3070       C  0.72583256  0.97123549  0.06193933    -0.23200
C3071       C  0.79976745  0.51966083  0.96889557    -0.18600
C3072       C  0.79939758  0.97369828  0.03495094    -0.18600
C3073       C  0.68391484  0.97861491  0.03646757    -0.18600
C3074       C  0.68434058  0.52672611  0.97065454    -0.18600
H3075       H  0.85536298  0.47921999  0.97706186     0.14300
H3076       H  0.85544427  0.95465747  0.01321486     0.14300
H3077       H  0.62465534  0.49486579  0.98055412     0.14300
H3078       H  0.62442716  0.96899558  0.01625370     0.14300
H3079       H  0.77525353  0.56900354  0.94132477     0.12600
H3080       H  0.71173329  0.57290278  0.94233919     0.12600
H3081       H  0.77420999  0.96561268  0.07402340     0.12600
H3082       H  0.71086561  0.96789704  0.07478758     0.12600
H3083       H  0.76968543  0.51142821  0.00522243     0.25900
H3084       H  0.71562337  0.51385201  0.00614789     0.25900
N3085       N  0.79022378  0.74226098  0.00055382    -0.36900
N3086       N  0.74278637  0.74824354  0.03184370    -0.57400
N3087       N  0.69570163  0.74139596  0.00098568    -0.36900
N3088       N  0.74307715  0.73505947  0.97069656    -0.57400
C3089       C  0.80721293  0.73684037  0.01709951     0.26700
C3090       C  0.80795971  0.73026884  0.98543262     0.26700
C3091       C  0.67802019  0.73871711  0.01753373     0.26700
C3092       C  0.67783668  0.72890332  0.98607229     0.26700
C3093       C  0.76892695  0.76127906  0.04071738     0.35300
C3094       C  0.71719815  0.76248971  0.04078933     0.35300
C3095       C  0.76870590  0.73910931  0.95894439     0.35300
C3096       C  0.71705319  0.73727003  0.95916366     0.35300
C3097       C  0.83586716  0.72066145  0.01252891    -0.22200
C3098       C  0.83632295  0.71641770  0.99247596    -0.22200
C3099       C  0.64876530  0.72373444  0.01322303    -0.22200
C3100       C  0.64867692  0.71738985  0.99334134    -0.22200
C3101       C  0.76003680  0.78342292  0.05569296    -0.23200
C3102       C  0.72700087  0.78410625  0.05578316    -0.23200
C3103       C  0.75904547  0.74382787  0.93966844    -0.23200
C3104       C  0.72605810  0.74252360  0.93979957    -0.23200
C3105       C  0.80042568  0.75275962  0.03521169    -0.18600
C3106       C  0.80037134  0.73465349  0.96540557    -0.18600
C3107       C  0.68574166  0.73136549  0.96591498    -0.18600
C3108       C  0.68534729  0.75570140  0.03527366    -0.18600
H3109       H  0.85513798  0.71436127  0.02252405     0.14300
H3110       H  0.85584069  0.70565041  0.98398759     0.14300
H3111       H  0.62893675  0.71958135  0.02319975     0.14300
H3112       H  0.62878893  0.70701889  0.98505983     0.14300
H3113       H  0.77567457  0.79783326  0.06531300     0.12600
H3114       H  0.71199882  0.79920676  0.06546380     0.12600
H3115       H  0.77415366  0.74680701  0.92685381     0.12600
H3116       H  0.71055680  0.74438491  0.92711221     0.12600
H3117       H  0.77049310  0.75846862  0.99938930     0.25900
H3118       H  0.71616792  0.75637099  0.99953918     0.25900
N3119       N  0.95473747  0.69754826  0.90570245    -0.06400
N3120       N  0.92823473  0.71606298  0.90646208    -0.58500
N3121       N  0.02848306  0.67557522  0.92114577    -0.06100
N3122       N  0.55340009  0.67884213  0.93281801    -0.60600
N3123       N  0.02911862  0.69885028  0.90727516    -0.05700
N3124       N  0.55464934  0.71863393  0.90921970    -0.58500
N3125       N  0.95479923  0.67448863  0.91972002    -0.05400
N3126       N  0.92842111  0.67642367  0.93023403    -0.61000
C3127       C  0.91216242  0.70229674  0.92179586     0.95800
C3128       C  0.56933077  0.70593581  0.92536647     0.95600
N3129       N  0.02971311  0.57117960  0.91024858    -0.06600
N3130       N  0.55590139  0.55266889  0.91310298    -0.59100
N3131       N  0.95550483  0.59625882  0.92217785    -0.04700
N3132       N  0.93137774  0.59467564  0.93452303    -0.60300
N3133       N  0.95432424  0.57108347  0.90938267    -0.06600
N3134       N  0.92884162  0.55166388  0.91302384    -0.59400
N3135       N  0.02876533  0.59652475  0.92294712    -0.04300
N3136       N  0.55383418  0.59576507  0.93463518    -0.60400
Mn3137     Mn  0.99197044  0.63575123  0.92202873     1.18400
C3138       C  0.57075065  0.56832312  0.92844111     0.97900
C3139       C  0.91472811  0.56688259  0.92890269     0.98500
N3140       N  0.53102799  0.69655353  0.86156679    -0.06600
N3141       N  0.54870672  0.72299877  0.85650237    -0.62900
N3142       N  0.95971876  0.67199028  0.84602847    -0.05400
N3143       N  0.94226323  0.68090845  0.83066912    -0.63600
N3144       N  0.95843100  0.69610044  0.85954218    -0.06100
N3145       N  0.93989108  0.72146845  0.85369449    -0.63200
N3146       N  0.53210032  0.67267489  0.84791552    -0.05000
N3147       N  0.55010123  0.68319893  0.83311009    -0.63900
Mn3148     Mn  0.99322570  0.69807764  0.88369048     1.10700
C3149       C  0.56055175  0.71463122  0.83870548     0.99100
C3150       C  0.92979193  0.71179678  0.83566404     0.99200
N3151       N  0.95840996  0.56645420  0.86175474    -0.06100
N3152       N  0.94058991  0.54035146  0.85584777    -0.61500
N3153       N  0.53235500  0.58949145  0.84985262    -0.05500
N3154       N  0.55148372  0.57868974  0.83565964    -0.58200
N3155       N  0.53089022  0.56635716  0.86390193    -0.06800
N3156       N  0.54912151  0.53981424  0.85944113    -0.61100
N3157       N  0.95989760  0.58979607  0.84779223    -0.05800
N3158       N  0.94305042  0.58000094  0.83240782    -0.58300
Mn3159     Mn  0.99303739  0.56752374  0.88653911     1.20200
Mn3160     Mn  0.99616377  0.63087985  0.84760342     1.10100
Cl3161     Cl  0.99352121  0.63290990  0.88482763    -0.86200
C3162       C  0.93097424  0.54920665  0.83750912     0.96100
C3163       C  0.56197480  0.54765200  0.84175314     0.95900
N3164       N  0.59007097  0.88305216  0.77682211    -0.36900
N3165       N  0.61153231  0.93403140  0.74918800    -0.57400
N3166       N  0.62506547  0.88020047  0.72020365    -0.36900
N3167       N  0.60603810  0.82937288  0.74842386    -0.57400
C3168       C  0.59189693  0.91089233  0.78866545     0.26700
C3169       C  0.59035803  0.85506347  0.78852139     0.26700
C3170       C  0.64016168  0.90723195  0.71195716     0.26700
C3171       C  0.63640112  0.85145279  0.71142731     0.26700
C3172       C  0.59803508  0.95496584  0.76273992     0.35300
C3173       C  0.61724904  0.95341605  0.73315197     0.35300
C3174       C  0.59133093  0.81052545  0.76235787     0.35300
C3175       C  0.60832054  0.80912676  0.73237523     0.35300
C3176       C  0.59274052  0.90044575  0.80811775    -0.22200
C3177       C  0.59179766  0.86522695  0.80802289    -0.22200
C3178       C  0.66111939  0.89559329  0.69757520    -0.22200
C3179       C  0.65878852  0.86035918  0.69726813    -0.22200
C3180       C  0.59509896  0.98779736  0.75526718    -0.23200
C3181       C  0.60737215  0.98685295  0.73654252    -0.23200
C3182       C  0.58404391  0.77824500  0.75513308    -0.23200
C3183       C  0.59472773  0.77738654  0.73609561    -0.23200
C3184       C  0.59161925  0.94548896  0.78240722    -0.18600
C3185       C  0.58776723  0.82067921  0.78211146    -0.18600
C3186       C  0.62569521  0.81764700  0.71525878    -0.18600
C3187       C  0.63391633  0.94213989  0.71621617    -0.18600
H3188       H  0.59405788  0.91651050  0.82106275     0.14300
H3189       H  0.59209436  0.84895804  0.82087553     0.14300
H3190       H  0.67633722  0.91092163  0.68817762     0.14300
H3191       H  0.67185553  0.84329352  0.68760190     0.14300
H3192       H  0.58607167  0.51015919  0.76269622     0.12600
H3193       H  0.60964347  0.50837781  0.72670016     0.12600
H3194       H  0.57300999  0.75720342  0.76295112     0.12600
H3195       H  0.59345032  0.75555245  0.72631082     0.12600
H3196       H  0.58562266  0.88319790  0.76179994     0.25900
H3197       H  0.60558496  0.88164899  0.72970099     0.25900
N3198       N  0.86758005  0.83005724  0.75006709    -0.36900
N3199       N  0.88259332  0.88213928  0.77886415    -0.57400
N3200       N  0.86910936  0.93453630  0.74945955    -0.36900
N3201       N  0.85160769  0.88227798  0.72128540    -0.57400
C3202       C  0.86899583  0.81111498  0.76666884     0.26700
C3203       C  0.85197971  0.81108907  0.73648558     0.26700
C3204       C  0.87068783  0.95356831  0.76606261     0.26700
C3205       C  0.85389347  0.95367409  0.73577463     0.26700
C3206       C  0.89437961  0.85437610  0.78827812     0.35300
C3207       C  0.89493864  0.90989277  0.78800514     0.35300
C3208       C  0.84887536  0.85431896  0.70969547     0.35300
C3209       C  0.84955062  0.90983692  0.70937109     0.35300
C3210       C  0.85412996  0.77982234  0.76360553    -0.22200
C3211       C  0.84341696  0.77977743  0.74454439    -0.22200
C3212       C  0.85642956  0.98515293  0.76288271    -0.22200
C3213       C  0.84582848  0.98522982  0.74376241    -0.22200
C3214       C  0.91407914  0.86452113  0.80358150    -0.23200
C3215       C  0.91447823  0.89973801  0.80339119    -0.23200
C3216       C  0.84487575  0.86412653  0.69028826    -0.23200
C3217       C  0.84533012  0.89935647  0.69007875    -0.23200
C3218       C  0.88578032  0.82015454  0.78392311    -0.18600
C3219       C  0.84705488  0.82029042  0.71665866    -0.18600
C3220       C  0.84863590  0.94418269  0.71597118    -0.18600
C3221       C  0.88687422  0.94417121  0.78348575    -0.18600
H3222       H  0.85170641  0.75895843  0.77394859     0.14300
H3223       H  0.83111138  0.75883182  0.73735666     0.14300
H3224       H  0.85417052  0.50602208  0.77328440     0.14300
H3225       H  0.83365299  0.50618852  0.73659755     0.14300
H3226       H  0.92655489  0.84828433  0.81392723     0.12600
H3227       H  0.92727903  0.91601420  0.81359414     0.12600
H3228       H  0.84126128  0.84764712  0.67768200     0.12600
H3229       H  0.84215265  0.91539788  0.67727607     0.12600
H3230       H  0.88005972  0.85260823  0.74740393     0.25900
H3231       H  0.88113877  0.91161003  0.74695748     0.25900
N3232       N  0.60918279  0.61866765  0.21796412    -0.36900
N3233       N  0.61746743  0.56753579  0.24878750    -0.57400
N3234       N  0.64129515  0.62028076  0.27512501    -0.36900
N3235       N  0.62997089  0.67135223  0.24508904    -0.57400
C3236       C  0.59380097  0.59152075  0.21001465     0.26700
C3237       C  0.59825230  0.64712447  0.20878354     0.26700
C3238       C  0.63930796  0.59372524  0.28779061     0.26700
C3239       C  0.64496102  0.64916723  0.28590614     0.26700
C3240       C  0.61166294  0.54651210  0.23341533     0.35300
C3241       C  0.62785614  0.54729447  0.26356308     0.35300
C3242       C  0.62849290  0.68981821  0.22840036     0.35300
C3243       C  0.64611205  0.69064729  0.25820566     0.35300
C3244       C  0.57335943  0.60263531  0.19532176    -0.22200
C3245       C  0.57582076  0.63780876  0.19472589    -0.22200
C3246       C  0.64253929  0.60571156  0.30686067    -0.22200
C3247       C  0.64581688  0.64076227  0.30569028    -0.22200
C3248       C  0.61769441  0.51278736  0.23858526    -0.23200
C3249       C  0.62781708  0.51327145  0.25770300    -0.23200
C3250       C  0.64413667  0.72085885  0.23082944    -0.23200
C3251       C  0.65527732  0.72140920  0.24977449    -0.23200
C3252       C  0.59873716  0.55690729  0.21523094    -0.18600
C3253       C  0.60953908  0.68091532  0.21204037    -0.18600
C3254       C  0.64926699  0.68257314  0.27826237    -0.18600
C3255       C  0.63682575  0.55880855  0.28245422    -0.18600
H3256       H  0.55804890  0.58704128  0.18611611     0.14300
H3257       H  0.56288178  0.65451631  0.18485185     0.14300
H3258       H  0.64266276  0.59074825  0.32022837     0.14300
H3259       H  0.64905267  0.65797926  0.31800594     0.14300
H3260       H  0.61490689  0.99025549  0.22955257     0.12600
H3261       H  0.63456924  0.99114881  0.26625055     0.12600
H3262       H  0.64635186  0.74138854  0.22025128     0.12600
H3263       H  0.66779881  0.74243153  0.25674707     0.12600
H3264       H  0.62840930  0.61732220  0.22755904     0.25900
H3265       H  0.64360449  0.61830618  0.26005946     0.25900
N3266       N  0.86183443  0.67090671  0.24784291    -0.36900
N3267       N  0.84676499  0.61980237  0.27709023    -0.57400
N3268       N  0.86423898  0.56676657  0.24906435    -0.36900
N3269       N  0.88114918  0.61811288  0.22032583    -0.57400
C3270       C  0.85969615  0.69021727  0.26430036     0.26700
C3271       C  0.87801725  0.68950768  0.23437797     0.26700
C3272       C  0.86191265  0.54831767  0.26579743     0.26700
C3273       C  0.88019320  0.54731348  0.23580956     0.26700
C3274       C  0.83305065  0.64753630  0.28549636     0.35300
C3275       C  0.83434956  0.59213686  0.28619148     0.35300
C3276       C  0.88186506  0.64542483  0.20820004     0.35300
C3277       C  0.88328191  0.58999958  0.20882787     0.35300
C3278       C  0.87479360  0.72138159  0.26131273    -0.22200
C3279       C  0.88625286  0.72100848  0.24236749    -0.22200
C3280       C  0.87648569  0.51669291  0.26312459    -0.22200
C3281       C  0.88797503  0.51603914  0.24417989    -0.22200
C3282       C  0.81179714  0.63752070  0.30003738    -0.23200
C3283       C  0.81252662  0.60229583  0.30043010    -0.23200
C3284       C  0.88470876  0.63469212  0.18886368    -0.23200
C3285       C  0.88548080  0.59947929  0.18925211    -0.23200
C3286       C  0.84156678  0.68164739  0.28110927    -0.18600
C3287       C  0.88313146  0.67976136  0.21464017    -0.18600
C3288       C  0.88594123  0.55617359  0.21598457    -0.18600
C3289       C  0.84447079  0.55813951  0.28274011    -0.18600
H3290       H  0.87660371  0.74253802  0.27154445     0.14300
H3291       H  0.89869080  0.74185492  0.23520916     0.14300
H3292       H  0.87776771  0.99590309  0.27370412     0.14300
H3293       H  0.90011111  0.99468753  0.23741591     0.14300
H3294       H  0.79756978  0.65387728  0.30948866     0.12600
H3295       H  0.79904092  0.58604215  0.31029454     0.12600
H3296       H  0.88668694  0.65056532  0.17590216     0.12600
H3297       H  0.88816500  0.58280333  0.17663888     0.12600
H3298       H  0.84923974  0.64843253  0.24508458     0.25900
H3299       H  0.85212751  0.58941638  0.24610646     0.25900
N3300       N  0.95507890  0.80502421  0.09240549    -0.06400
N3301       N  0.92992876  0.78528261  0.08885166    -0.58500
N3302       N  0.02936455  0.82993705  0.08045587    -0.06100
N3303       N  0.55436965  0.82770411  0.06879443    -0.60600
N3304       N  0.02976486  0.80547181  0.09365878    -0.05700
N3305       N  0.55549481  0.78603288  0.09121825    -0.58500
N3306       N  0.95659163  0.82958573  0.07931152    -0.05400
N3307       N  0.93301576  0.82719581  0.06668384    -0.61000
C3308       C  0.91654025  0.79949093  0.07257671     0.95800
C3309       C  0.57068107  0.80037494  0.07561084     0.95600
N3310       N  0.02911119  0.93254434  0.09487518    -0.06600
N3311       N  0.55559602  0.95109882  0.09364503    -0.59100
N3312       N  0.95507965  0.90806835  0.08041574    -0.04700
N3313       N  0.92901056  0.90890534  0.06955971    -0.60300
N3314       N  0.95416901  0.93200983  0.09397587    -0.06600
N3315       N  0.92737497  0.94992887  0.09255131    -0.59400
N3316       N  0.02908512  0.90867691  0.08127733    -0.04300
N3317       N  0.55528730  0.91022792  0.07058768    -0.60400
Mn3318     Mn  0.99255948  0.86921612  0.07978802     1.18400
C3319       C  0.57173966  0.93651570  0.07847508     1.02300
C3320       C  0.91194126  0.93495514  0.07731845     0.98500
N3321       N  0.52676617  0.80359041  0.14003822    -0.06600
N3322       N  0.54688670  0.77889164  0.14477887    -0.62900
N3323       N  0.95315337  0.82630012  0.15292139    -0.05400
N3324       N  0.93347010  0.81668294  0.16707637    -0.63600
N3325       N  0.95396364  0.80286208  0.13899535    -0.06100
N3326       N  0.93477273  0.77718711  0.14346938    -0.63200
N3327       N  0.52601353  0.82708616  0.15392102    -0.05000
N3328       N  0.54555635  0.81858170  0.16833469    -0.63900
Mn3329     Mn  0.99136012  0.80302671  0.11615467     1.10700
C3330       C  0.55854172  0.78844704  0.16249971     0.99100
C3331       C  0.92172495  0.78616555  0.16092356     0.99200
N3332       N  0.95337731  0.93244254  0.13987226    -0.06100
N3333       N  0.93408004  0.95792673  0.14448134    -0.61500
N3334       N  0.52539347  0.90903832  0.15467083    -0.05500
N3335       N  0.54395892  0.91815793  0.16947151    -0.58200
N3336       N  0.52604112  0.93269114  0.14093003    -0.06800
N3337       N  0.54517221  0.95799926  0.14606384    -0.61100
N3338       N  0.95260465  0.90872345  0.15356890    -0.05800
N3339       N  0.93285723  0.91807904  0.16779848    -0.58300
Mn3340     Mn  0.99073364  0.93351296  0.11721996     1.20200
Mn3341     Mn  0.98921488  0.86772467  0.15422697     1.10100
Cl3342     Cl  0.99094941  0.86830598  0.11696030    -0.86200
C3343       C  0.92101413  0.94869130  0.16183565     0.96100
C3344       C  0.55643233  0.94863257  0.16384402     0.95900
C3345       C  0.93474877  0.99911885  0.18195551    -0.20600
C3346       C  0.91156830  0.97520050  0.17610018    -0.07100
C3347       C  0.87989266  0.47775958  0.18326998     0.13700
C3348       C  0.87217051  0.50455713  0.19623671    -0.20600
C3349       C  0.89541506  0.52846524  0.20213401    -0.07200
C3350       C  0.92716333  0.52534023  0.19514617     0.13700
C3351       C  0.95327339  0.54936481  0.20180882    -0.24000
H3352       H  0.95876611  0.99724380  0.17602622     0.15000
H3353       H  0.84790525  0.50703602  0.20175456     0.15000
C3354       C  0.85438082  0.45291916  0.17688090    -0.23900
H3355       H  0.97704544  0.04247890  0.19542672     0.05200
H3356       H  0.95538554  0.54845727  0.21805222     0.08500
H3357       H  0.94775176  0.57594091  0.19720017     0.08500
H3358       H  0.86162960  0.92651549  0.18121664     0.08400
H3359       H  0.85157846  0.95418929  0.16082608     0.08400
H3360       H  0.83086674  0.45885947  0.18375048     0.05200
C3361       C  0.92455389  0.71609063  0.19922198    -0.20600
C3362       C  0.89222057  0.70675780  0.20038968    -0.07100
C3363       C  0.86928685  0.72405084  0.18875618     0.13700
C3364       C  0.87945925  0.75016075  0.17603053    -0.20600
C3365       C  0.91178200  0.75963590  0.17501071    -0.07200
C3366       C  0.93459370  0.74255982  0.18680447     0.13700
C3367       C  0.96950719  0.75232850  0.18638137    -0.24000
H3368       H  0.94189415  0.70288593  0.20833102     0.15000
H3369       H  0.86206772  0.76323911  0.16689738     0.15000
C3370       C  0.83406603  0.71565639  0.18946503    -0.23900
H3371       H  0.98402135  0.73637082  0.19653072     0.05200
H3372       H  0.97208900  0.77946660  0.19094466     0.08500
H3373       H  0.97929676  0.74904139  0.17133093     0.08500
H3374       H  0.82039127  0.73874317  0.19403804     0.08400
H3375       H  0.82835188  0.69475672  0.19989256     0.08400
H3376       H  0.82587990  0.70762263  0.17464584     0.05200
C3377       C  0.55950800  0.01233513  0.20586450    -0.20600
C3378       C  0.58803015  0.52970435  0.20149234    -0.07100
C3379       C  0.60678177  0.51934770  0.18522188     0.13700
C3380       C  0.59602555  0.49230970  0.17336872    -0.20600
C3381       C  0.56778979  0.97470073  0.17785652    -0.07200
C3382       C  0.54939025  0.98453858  0.19440656     0.13700
C3383       C  0.51886348  0.96630828  0.19990392    -0.24000
H3384       H  0.54554638  0.02012939  0.21854980     0.15000
H3385       H  0.60991334  0.48484288  0.16058166     0.15000
C3386       C  0.63844393  0.53570228  0.18019803    -0.23900
H3387       H  0.50653084  0.97889627  0.21245983     0.05200
H3388       H  0.52432733  0.93954795  0.20422681     0.08500
H3389       H  0.50219969  0.96611002  0.18724868     0.08500
H3390       H  0.64526551  0.55644482  0.19050197     0.08400
H3391       H  0.63726973  0.54671083  0.16519294     0.08400
H3392       H  0.65761466  0.51596717  0.18057729     0.05200
C3393       C  0.59272626  0.73738814  0.16746448    -0.20600
C3394       C  0.57390164  0.76341190  0.17591863    -0.07100
C3395       C  0.56829766  0.76293642  0.19647654     0.13700
C3396       C  0.57997739  0.73545305  0.20759174    -0.20600
C3397       C  0.59836218  0.70923187  0.19905378    -0.07200
C3398       C  0.60568129  0.71082148  0.17880768     0.13700
C3399       C  0.62727162  0.68528882  0.16873116    -0.24000
H3400       H  0.59757778  0.73786425  0.15181262     0.15000
H3401       H  0.57476295  0.73432316  0.22318638     0.15000
C3402       C  0.54965871  0.79057226  0.20696438    -0.23900
H3403       H  0.61350668  0.67123212  0.15733709     0.05200
H3404       H  0.63784048  0.66639576  0.17897264     0.08500
H3405       H  0.64740933  0.69902683  0.16156021     0.08500
H3406       H  0.52505608  0.79222866  0.20097373     0.08400
H3407       H  0.06201686  0.81554358  0.20525732     0.08400
H3408       H  0.04753396  0.78543858  0.22295857     0.05200
C3409       C  0.55478715  0.97223613  0.80680208    -0.20600
C3410       C  0.58476930  0.97267310  0.79740730    -0.07100
C3411       C  0.60764873  0.99766875  0.80311219     0.13700
C3412       C  0.59954968  0.02190541  0.81760573    -0.20600
C3413       C  0.56989094  0.52068023  0.82723563    -0.07200
C3414       C  0.54726834  0.49536511  0.82182231     0.13700
C3415       C  0.51507699  0.49271238  0.83182239    -0.24000
H3416       H  0.53737336  0.45296665  0.80244161     0.15000
H3417       H  0.61679131  0.04142940  0.82168285     0.15000
C3418       C  0.64102357  0.99917400  0.79466567    -0.23900
H3419       H  0.49946465  0.47329077  0.82471144     0.05200
H3420       H  0.50249535  0.51769721  0.83135230     0.08500
H3421       H  0.51838843  0.48506346  0.84737620     0.08500
H3422       H  0.64633165  0.97797481  0.78435044     0.08400
H3423       H  0.65879223  0.99758215  0.80675445     0.08400
H3424       H  0.64434915  0.02382597  0.78681281     0.05200
C3425       C  0.59758385  0.74344210  0.81565583    -0.20600
C3426       C  0.56712865  0.74169683  0.82420589    -0.07100
C3427       C  0.54358998  0.76642284  0.81924210     0.13700
C3428       C  0.55094228  0.79168643  0.80536541    -0.20600
C3429       C  0.58147194  0.79357930  0.79691815    -0.07200
C3430       C  0.60529880  0.76963889  0.80236833     0.13700
C3431       C  0.63907578  0.77240961  0.79468648    -0.24000
H3432       H  0.61559330  0.72478050  0.81978114     0.15000
H3433       H  0.53294676  0.81035480  0.80120985     0.15000
C3434       C  0.51073221  0.76645098  0.82852468    -0.23900
H3435       H  0.65490125  0.75244354  0.80106387     0.05200
H3436       H  0.64910245  0.79786435  0.79859245     0.08500
H3437       H  0.63944776  0.76929830  0.77850083     0.08500
H3438       H  0.51265722  0.77259100  0.84439379     0.08400
H3439       H  0.49938854  0.74098099  0.82677874     0.08400
H3440       H  0.49470247  0.78585948  0.82176886     0.05200
C3441       C  0.89462249  0.00133296  0.82881052    -0.20600
C3442       C  0.91887540  0.52386547  0.82296117    -0.07100
C3443       C  0.93162582  0.52101094  0.80364611     0.13700
C3444       C  0.92072623  0.99473640  0.79122799    -0.20600
C3445       C  0.89680279  0.97192563  0.79728276    -0.07200
C3446       C  0.88276994  0.97599969  0.81602602     0.13700
C3447       C  0.85465843  0.95440638  0.82228035    -0.24000
H3448       H  0.88443775  0.00392049  0.84339054     0.15000
H3449       H  0.93088397  0.99183758  0.77665172     0.15000
C3450       C  0.95691790  0.54503912  0.79585197    -0.23900
H3451       H  0.84573708  0.96191686  0.83704619     0.05200
H3452       H  0.86152460  0.92700223  0.82287822     0.08500
H3453       H  0.83474108  0.95765682  0.81163777     0.08500
H3454       H  0.97836178  0.54468900  0.80540987     0.08400
H3455       H  0.94717899  0.57144708  0.79504707     0.08400
H3456       H  0.96479025  0.53781815  0.78081134     0.05200
C3457       C  0.91712605  0.76714726  0.79013609    -0.20600
C3458       C  0.89576641  0.79192648  0.79740847    -0.07100
C3459       C  0.88405827  0.78871545  0.81682279     0.13700
C3460       C  0.89531229  0.76189958  0.82868059    -0.20600
C3461       C  0.91688280  0.73720925  0.82149147    -0.07200
C3462       C  0.92753780  0.73960625  0.80175351     0.13700
C3463       C  0.95039900  0.71402628  0.79280597    -0.24000
H3464       H  0.92573148  0.76948748  0.77516555     0.15000
H3465       H  0.88692090  0.76011766  0.84372777     0.15000
C3466       C  0.85938010  0.81263007  0.82543519    -0.23900
H3467       H  0.95662231  0.72067646  0.77741072     0.05200
H3468       H  0.93922018  0.68824823  0.79260939     0.08500
H3469       H  0.97303290  0.71318422  0.80128324     0.08500
H3470       H  0.83834906  0.79759831  0.83047641     0.08400
H3471       H  0.85055640  0.83186060  0.81479434     0.08400
H3472       H  0.86981579  0.82635752  0.83821024     0.05200
C3473       C  0.65176395  0.75747366  0.06570591    -0.20600
C3474       C  0.65822692  0.77002384  0.04680368    -0.07100
C3475       C  0.63703501  0.79389103  0.03821954     0.13700
C3476       C  0.60851321  0.80195447  0.04783526    -0.20600
C3477       C  0.60122481  0.78882741  0.06652261    -0.07200
C3478       C  0.62374409  0.76712508  0.07588643     0.13700
C3479       C  0.61888291  0.75455908  0.09657314    -0.24000
H3480       H  0.66845467  0.73966197  0.07235196     0.15000
H3481       H  0.59200202  0.81925831  0.04060042     0.15000
C3482       C  0.64382643  0.81169161  0.01898376    -0.23900
H3483       H  0.63965284  0.73927778  0.10178038     0.05200
H3484       H  0.59734871  0.73796529  0.09732058     0.08500
H3485       H  0.61600388  0.77673638  0.10666636     0.08500
H3486       H  0.62582704  0.80377693  0.00786958     0.08400
H3487       H  0.66809405  0.80629714  0.01314180     0.08400
H3488       H  0.64223168  0.83985009  0.02113727     0.05200
C3489       C  0.84753585  0.79011801  0.03658551    -0.20600
C3490       C  0.82813366  0.76638316  0.04631298    -0.07100
C3491       C  0.83747887  0.75365467  0.06479516     0.13700
C3492       C  0.86626877  0.76524255  0.07316746    -0.20600
C3493       C  0.88625782  0.78841802  0.06317649    -0.07200
C3494       C  0.87681090  0.80064271  0.04437189     0.13700
C3495       C  0.89765324  0.82326611  0.03166137    -0.24000
H3496       H  0.84020939  0.79929009  0.02223858     0.15000
H3497       H  0.87339870  0.75570680  0.08744519     0.15000
C3498       C  0.81787525  0.72696711  0.07527663    -0.23900
H3499       H  0.88700200  0.82756949  0.01691971     0.05200
H3500       H  0.92135093  0.81095276  0.02935005     0.08500
H3501       H  0.90070367  0.84886352  0.03844626     0.08500
H3502       H  0.81539754  0.70392374  0.06582143     0.08400
H3503       H  0.79374521  0.73720656  0.07875698     0.08400
H3504       H  0.82924163  0.71902981  0.08929250     0.05200
C3505       C  0.63939559  0.75371801  0.94724555    -0.20600
C3506       C  0.65979921  0.72617096  0.95149503    -0.07100
C3507       C  0.65258817  0.69313183  0.94445220     0.13700
C3508       C  0.62352914  0.68775190  0.93474309    -0.20600
C3509       C  0.60191351  0.71477467  0.93173205    -0.07200
C3510       C  0.61044032  0.74841643  0.93724382     0.13700
C3511       C  0.58824542  0.77820854  0.93376523    -0.24000
H3512       H  0.64536097  0.77901868  0.95271492     0.15000
H3513       H  0.61701236  0.66204249  0.93020525     0.15000
C3514       C  0.67478877  0.66336108  0.94808006    -0.23900
H3515       H  0.59846992  0.80257329  0.93941537     0.05200
H3516       H  0.56504112  0.77370550  0.94131892     0.08500
H3517       H  0.58400406  0.78123048  0.91777037     0.08500
H3518       H  0.67804652  0.65962384  0.96410610     0.08400
H3519       H  0.69844014  0.66854033  0.94122558     0.08400
H3520       H  0.66527071  0.63916533  0.94176573     0.05200
C3521       C  0.87839959  0.74563657  0.93781588    -0.20600
C3522       C  0.88078505  0.71347450  0.92883976    -0.07100
C3523       C  0.85476815  0.69042171  0.92951965     0.13700
C3524       C  0.82758904  0.69919231  0.94044325    -0.20600
C3525       C  0.82625717  0.73015861  0.95080802    -0.07200
C3526       C  0.85135824  0.75422235  0.94899718     0.13700
C3527       C  0.85001585  0.78838033  0.95930935    -0.24000
H3528       H  0.89856738  0.76309606  0.93714964     0.15000
H3529       H  0.80803171  0.68107997  0.94181680     0.15000
C3530       C  0.85580572  0.65644695  0.91895980    -0.23900
H3531       H  0.87143791  0.80424092  0.95599722     0.05200
H3532       H  0.84894346  0.78470244  0.97545081     0.08500
H3533       H  0.82843478  0.80266120  0.95444719     0.08500
H3534       H  0.87539833  0.64027222  0.92481884     0.08400
H3535       H  0.85986458  0.66076409  0.90303845     0.08400
H3536       H  0.83303030  0.64204198  0.92069867     0.05200
C3537       C  0.65368925  0.93426732  0.05464401    -0.20600
C3538       C  0.65812053  0.96899499  0.05043980    -0.07100
C3539       C  0.63646273  0.99349809  0.05802759     0.13700
C3540       C  0.60933626  0.98237143  0.06843276    -0.20600
C3541       C  0.60337811  0.94734729  0.07108467    -0.07200
C3542       C  0.62657197  0.92305454  0.06489890     0.13700
C3543       C  0.62297377  0.88528294  0.06895558    -0.24000
H3544       H  0.67081828  0.91574423  0.04906890     0.15000
H3545       H  0.59157731  0.50082999  0.07335493     0.15000
C3546       C  0.64130506  0.53120928  0.05456624    -0.23900
H3547       H  0.64471234  0.87065859  0.06461484     0.05200
H3548       H  0.60269040  0.87473701  0.06041421     0.08500
H3549       H  0.61888062  0.88105038  0.08488637     0.08500
H3550       H  0.64093202  0.53692095  0.03861066     0.08400
H3551       H  0.66480166  0.53902607  0.06074993     0.08400
H3552       H  0.62233469  0.54682600  0.06172739     0.05200
C3553       C  0.87626561  0.97987153  0.06434854    -0.20600
C3554       C  0.88056380  0.94557705  0.06969984    -0.07100
C3555       C  0.85599349  0.92146902  0.06602277     0.13700
C3556       C  0.82895584  0.93163380  0.05534474    -0.20600
C3557       C  0.82583937  0.96535643  0.04865082    -0.07200
C3558       C  0.84908945  0.99009387  0.05379765     0.13700
C3559       C  0.84546314  0.02708059  0.04788793    -0.24000
H3560       H  0.89494954  0.99832626  0.06756127     0.15000
H3561       H  0.81058897  0.91305602  0.05170578     0.15000
C3562       C  0.85784289  0.88531059  0.07368600    -0.23900
H3563       H  0.86538005  0.04308221  0.05361748     0.05200
H3564       H  0.82304002  0.53760113  0.05348593     0.08500
H3565       H  0.84539113  0.02942282  0.03165462     0.08500
H3566       H  0.86059412  0.88578626  0.08990185     0.08400
H3567       H  0.87845671  0.87166250  0.06713120     0.08400
H3568       H  0.83590290  0.87044353  0.07013246     0.05200
C3569       C  0.61289920  0.57809822  0.95348514    -0.20600
C3570       C  0.60195881  0.55837625  0.93746399    -0.07100
C3571       C  0.62077180  0.53016576  0.93106913     0.13700
C3572       C  0.64872749  0.52153404  0.94150030    -0.20600
C3573       C  0.65824656  0.54024645  0.95807098    -0.07200
C3574       C  0.64058901  0.56925189  0.96388995     0.13700
C3575       C  0.65066282  0.59042164  0.98137249    -0.24000
H3576       H  0.59930510  0.60019813  0.95834135     0.15000
H3577       H  0.66261744  0.49927415  0.93720178     0.15000
C3578       C  0.61161768  0.50865786  0.91357366    -0.23900
H3579       H  0.63466484  0.61283355  0.98364801     0.05200
H3580       H  0.67541565  0.60004480  0.97910886     0.08500
H3581       H  0.64999581  0.57458806  0.99489180     0.08500
H3582       H  0.61022252  0.52497699  0.90026192     0.08400
H3583       H  0.58860894  0.99634932  0.91606253     0.08400
H3584       H  0.62995335  0.98883440  0.91043250     0.05200
C3585       C  0.84458302  0.55992707  0.96510221    -0.20600
C3586       C  0.82702944  0.53294525  0.95703419    -0.07100
C3587       C  0.83787276  0.51723570  0.93953861     0.13700
C3588       C  0.86635305  0.52887729  0.93064234    -0.20600
C3589       C  0.88443439  0.55576367  0.93883934    -0.07200
C3590       C  0.87306366  0.57152913  0.95647449     0.13700
C3591       C  0.89070999  0.59995074  0.96697188    -0.24000
H3592       H  0.83621953  0.57139975  0.97869931     0.15000
H3593       H  0.87456155  0.51657801  0.91726908     0.15000
C3594       C  0.82033518  0.48777637  0.93015603    -0.23900
H3595       H  0.87845215  0.60785148  0.98075040     0.05200
H3596       H  0.89204526  0.62303884  0.95754699     0.08500
H3597       H  0.91510861  0.59121102  0.97108990     0.08500
H3598       H  0.81343134  0.49480776  0.91494356     0.08400
H3599       H  0.79824045  0.48063478  0.93821720     0.08400
H3600       H  0.83625999  0.46500007  0.92963228     0.05200
C3601       C  0.67979702  0.51622036  0.69340844    -0.20600
C3602       C  0.66335854  0.52040298  0.67558639    -0.07100
C3603       C  0.63748694  0.49853111  0.67105659     0.13700
C3604       C  0.62852922  0.97305054  0.68448376    -0.20600
C3605       C  0.64532088  0.96853314  0.70213076    -0.07200
C3606       C  0.67155348  0.99002042  0.70653969     0.13700
C3607       C  0.69129136  0.98483541  0.72482765    -0.24000
H3608       H  0.69959892  0.53307068  0.69688987     0.15000
H3609       H  0.60826012  0.95660922  0.68130640     0.15000
C3610       C  0.61843507  0.50307568  0.65247214    -0.23900
H3611       H  0.71155448  0.00322394  0.72563998     0.05200
H3612       H  0.70138802  0.95851363  0.72486936     0.08500
H3613       H  0.67625992  0.98849212  0.73811093     0.08500
H3614       H  0.63410380  0.49916855  0.63948382     0.08400
H3615       H  0.60817793  0.52931808  0.65203644     0.08400
H3616       H  0.59808843  0.98488858  0.65161125     0.05200
C3617       C  0.65513497  0.76317725  0.70945675    -0.20600
C3618       C  0.63538087  0.78907954  0.70184937    -0.07100
C3619       C  0.62428683  0.78627936  0.68229052     0.13700
C3620       C  0.63439726  0.75851704  0.67069646    -0.20600
C3621       C  0.65438168  0.73270324  0.67823770    -0.07200
C3622       C  0.66411753  0.73462608  0.69816237     0.13700
C3623       C  0.68411621  0.70720318  0.70778149    -0.24000
H3624       H  0.66323465  0.76519720  0.72454070     0.15000
H3625       H  0.62664507  0.75709076  0.65551485     0.15000
C3626       C  0.60161105  0.81176166  0.67319123    -0.23900
H3627       H  0.68970447  0.71351427  0.72331750     0.05200
H3628       H  0.70718982  0.70402803  0.69996572     0.08500
H3629       H  0.67083816  0.68257818  0.70768451     0.08500
H3630       H  0.61336799  0.82412296  0.66039849     0.08400
H3631       H  0.59387811  0.83208281  0.68352540     0.08400
H3632       H  0.57974070  0.79826294  0.66806857     0.05200
C3633       C  0.85101349  0.52167532  0.68189648    -0.20600
C3634       C  0.81876661  0.52416353  0.67648179    -0.07100
C3635       C  0.79649162  0.00046061  0.68397102     0.13700
C3636       C  0.80701187  0.97437569  0.69656044    -0.20600
C3637       C  0.83936603  0.97154296  0.70184497    -0.07200
C3638       C  0.86173756  0.99560433  0.69447462     0.13700
C3639       C  0.89684048  0.99450959  0.69957193    -0.24000
H3640       H  0.86809857  0.53998235  0.67609889     0.15000
H3641       H  0.78990240  0.95624551  0.70250428     0.15000
C3642       C  0.76136863  0.00304827  0.67907582    -0.23900
H3643       H  0.90353948  0.51865470  0.70719774     0.05200
H3644       H  0.90316617  0.97279324  0.70927935     0.08500
H3645       H  0.91119412  0.99200135  0.68590205     0.08500
H3646       H  0.75763328  0.49938564  0.66307540     0.08400
H3647       H  0.75209303  0.52847935  0.68349682     0.08400
H3648       H  0.74701439  0.98330543  0.68685229     0.05200
C3649       C  0.84757794  0.74295515  0.68252244    -0.20600
C3650       C  0.81486674  0.73993987  0.67828815    -0.07100
C3651       C  0.79278400  0.76312778  0.68678932     0.13700
C3652       C  0.80405579  0.78943909  0.69894879    -0.20600
C3653       C  0.83679226  0.79289046  0.70290159    -0.07200
C3654       C  0.85883352  0.76922630  0.69484321     0.13700
C3655       C  0.89413529  0.77199194  0.69910731    -0.24000
H3656       H  0.86433323  0.72503931  0.67596532     0.15000
H3657       H  0.78729350  0.80728659  0.70556865     0.15000
C3658       C  0.75728269  0.75979241  0.68332083    -0.23900
H3659       H  0.90805751  0.75168239  0.69147179     0.05200
H3660       H  0.89839906  0.76940016  0.71512529     0.08500
H3661       H  0.90315527  0.79726832  0.69410821     0.08500
H3662       H  0.74940579  0.73392847  0.68787216     0.08400
H3663       H  0.75175713  0.76348042  0.66753588     0.08400
H3664       H  0.74333301  0.77897345  0.69185625     0.05200
C3665       C  0.68646413  0.99588075  0.31193092    -0.20600
C3666       C  0.66288739  0.97974669  0.32328039    -0.07100
C3667       C  0.63114623  0.49143916  0.32237005     0.13700
C3668       C  0.62312449  0.51777894  0.30920016    -0.20600
C3669       C  0.64651652  0.53257584  0.29704175    -0.07200
C3670       C  0.67856048  0.02202717  0.29875268     0.13700
C3671       C  0.70517461  0.03732932  0.28658710    -0.24000
H3672       H  0.71126835  0.98799739  0.31336934     0.15000
H3673       H  0.59857095  0.52667643  0.30822973     0.15000
C3674       C  0.60566933  0.47573967  0.33516428    -0.23900
H3675       H  0.72350513  0.04869584  0.29644025     0.05200
H3676       H  0.69654648  0.55526351  0.27499233     0.08500
H3677       H  0.71660255  0.01689831  0.27762241     0.08500
H3678       H  0.61191641  0.47947272  0.35087255     0.08400
H3679       H  0.60388976  0.44788058  0.33202473     0.08400
H3680       H  0.58182621  0.48749877  0.33251833     0.05200
C3681       C  0.63836156  0.76033521  0.31129580    -0.20600
C3682       C  0.66883997  0.76300894  0.31964395    -0.07100
C3683       C  0.69350310  0.74030215  0.31369193     0.13700
C3684       C  0.68660084  0.71445677  0.30002498    -0.20600
C3685       C  0.65580104  0.71109112  0.29213832    -0.07200
C3686       C  0.63151622  0.73460025  0.29753158     0.13700
C3687       C  0.59827378  0.73220749  0.28902142    -0.24000
H3688       H  0.61979108  0.77816264  0.31575535     0.15000
H3689       H  0.70517657  0.69666207  0.29552198     0.15000
C3690       C  0.72716641  0.74352459  0.32149884    -0.23900
H3691       H  0.58206017  0.75199336  0.29528045     0.05200
H3692       H  0.58790975  0.70664531  0.29224145     0.08500
H3693       H  0.59913962  0.73603779  0.27288796     0.08500
H3694       H  0.72747449  0.73897030  0.33757031     0.08400
H3695       H  0.73647672  0.76958794  0.31841173     0.08400
H3696       H  0.74362748  0.72465607  0.31457259     0.05200
C3697       C  0.83930791  0.50236052  0.32858344    -0.20600
C3698       C  0.81781676  0.97680846  0.32235465    -0.07100
C3699       C  0.80488569  0.97855983  0.30308772     0.13700
C3700       C  0.81401267  0.50556495  0.29071084    -0.20600
C3701       C  0.83537174  0.53094648  0.29698141    -0.07200
C3702       C  0.84852757  0.52918369  0.31606657     0.13700
C3703       C  0.87277094  0.55502363  0.32310724    -0.24000
H3704       H  0.84889731  0.50124395  0.34336184     0.15000
H3705       H  0.80423029  0.50708896  0.27598821     0.15000
C3706       C  0.78118151  0.95270779  0.29534214    -0.23900
H3707       H  0.88166452  0.54880963  0.33805263     0.05200
H3708       H  0.86194594  0.58092776  0.32373215     0.08500
H3709       H  0.89361846  0.55538004  0.31296735     0.08500
H3710       H  0.75981301  0.95173857  0.30504568     0.08400
H3711       H  0.79258169  0.92706074  0.29446412     0.08400
H3712       H  0.77276058  0.95928132  0.28034130     0.05200
C3713       C  0.80392448  0.76223498  0.30297777    -0.20600
C3714       C  0.81660905  0.76195447  0.32208942    -0.07100
C3715       C  0.83803778  0.73552919  0.32749576     0.13700
C3716       C  0.84576786  0.70985384  0.31379643    -0.20600
C3717       C  0.83215690  0.70950955  0.29495763    -0.07200
C3718       C  0.81081095  0.73601776  0.28950553     0.13700
C3719       C  0.79406616  0.73697395  0.26988819    -0.24000
H3720       H  0.78727772  0.78222501  0.29874677     0.15000
H3721       H  0.86244560  0.68975178  0.31780416     0.15000
C3722       C  0.85341572  0.73469770  0.34750952    -0.23900
H3723       H  0.76772912  0.73751975  0.27224237     0.05200
H3724       H  0.79943450  0.71447003  0.26052072     0.08500
H3725       H  0.80127421  0.76043753  0.26182251     0.08500
H3726       H  0.83493795  0.73096341  0.35902488     0.08400
H3727       H  0.86634179  0.75909969  0.35022256     0.08400
H3728       H  0.87093343  0.71339225  0.34881235     0.05200
C3729       C  0.57654756  0.69161527  0.55394767    -0.20600
C3730       C  0.57116330  0.72589798  0.54905670    -0.07100
C3731       C  0.59222052  0.75152900  0.55585827     0.13700
C3732       C  0.61955399  0.74194955  0.56652362    -0.20600
C3733       C  0.62641514  0.70729818  0.56994745    -0.07200
C3734       C  0.60412613  0.68184910  0.56415898     0.13700
C3735       C  0.60927747  0.64433202  0.56847594    -0.24000
H3736       H  0.55995822  0.67224994  0.54875790     0.15000
H3737       H  0.63653777  0.76134261  0.57114979     0.15000
C3738       C  0.58626525  0.78869730  0.55127651    -0.23900
H3739       H  0.58804285  0.62869640  0.56443062     0.05200
H3740       H  0.61378970  0.64066708  0.58440382     0.08500
H3741       H  0.62982065  0.63436966  0.55985795     0.08500
H3742       H  0.56270218  0.79658617  0.55738187     0.08400
H3743       H  0.58618078  0.79261529  0.53512839     0.08400
H3744       H  0.60501224  0.80546694  0.55772020     0.05200
C3745       C  0.88296332  0.75443716  0.55410131    -0.20600
C3746       C  0.90456175  0.72738509  0.55089787    -0.07100
C3747       C  0.89852841  0.69502333  0.55929165     0.13700
C3748       C  0.87043642  0.69016952  0.57018778    -0.20600
C3749       C  0.84761197  0.71636503  0.57206339    -0.07200
C3750       C  0.85418826  0.74913178  0.56438417     0.13700
C3751       C  0.82985611  0.77754937  0.56564395    -0.24000
H3752       H  0.88762147  0.77906049  0.54734320     0.15000
H3753       H  0.86518955  0.66508099  0.57618313     0.15000
C3754       C  0.92040360  0.66498600  0.55550039    -0.23900
H3755       H  0.83856496  0.80130605  0.55844883     0.05200
H3756       H  0.82469646  0.78350256  0.58127691     0.08500
H3757       H  0.80735410  0.76958498  0.55823870     0.08500
H3758       H  0.94475941  0.67062823  0.56114974     0.08400
H3759       H  0.92176334  0.65981999  0.53947599     0.08400
H3760       H  0.91167084  0.64134451  0.56281335     0.05200
C3761       C  0.61265045  0.81208794  0.44603258    -0.20600
C3762       C  0.62598836  0.79135000  0.43116119    -0.07100
C3763       C  0.60956267  0.76087399  0.42577090     0.13700
C3764       C  0.58191739  0.75098665  0.43632733    -0.20600
C3765       C  0.57006987  0.77099498  0.45185774    -0.07200
C3766       C  0.58505100  0.80234933  0.45633635     0.13700
C3767       C  0.57205824  0.82540811  0.47224589    -0.24000
H3768       H  0.62418806  0.83597435  0.44998843     0.15000
H3769       H  0.57001897  0.72706379  0.43286572     0.15000
C3770       C  0.62104032  0.73831903  0.40924534    -0.23900
H3771       H  0.58643605  0.84909949  0.47367968     0.05200
H3772       H  0.57258084  0.81209553  0.48662650     0.08500
H3773       H  0.54701341  0.83279421  0.46873416     0.08500
H3774       H  0.64539578  0.72847796  0.41254320     0.08400
H3775       H  0.62139521  0.75309547  0.39532653     0.08400
H3776       H  0.60507801  0.71588559  0.40703687     0.05200
C3777       C  0.89389675  0.75294461  0.43594934    -0.20600
C3778       C  0.90026201  0.76669527  0.45464477    -0.07100
C3779       C  0.87880818  0.79097278  0.46273905     0.13700
C3780       C  0.85114812  0.79962235  0.45242558    -0.20600
C3781       C  0.84462827  0.78650711  0.43362678    -0.07200
C3782       C  0.86651073  0.76283845  0.42518584     0.13700
C3783       C  0.86147697  0.74804786  0.40498142    -0.24000
H3784       H  0.91033869  0.73423250  0.42984743     0.15000
H3785       H  0.83462212  0.81741990  0.45927607     0.15000
C3786       C  0.88417197  0.80865175  0.48222937    -0.23900
H3787       H  0.88132208  0.73059939  0.40066448     0.05200
H3788       H  0.86033656  0.76899482  0.39399439     0.08500
H3789       H  0.83891359  0.73303741  0.40463116     0.08500
H3790       H  0.90792251  0.80331488  0.48874481     0.08400
H3791       H  0.86529484  0.80067147  0.49278118     0.08400
H3792       H  0.88273418  0.83682122  0.48025856     0.05200
C3793       C  0.61058744  0.53520410  0.57412801    -0.20600
C3794       C  0.63859021  0.54376535  0.56385351    -0.07100
C3795       C  0.64007880  0.53681644  0.54359952     0.13700
C3796       C  0.61245363  0.52574772  0.53387332    -0.20600
C3797       C  0.58206320  0.52492956  0.54314697    -0.07200
C3798       C  0.58294681  0.52368761  0.56411839     0.13700
C3799       C  0.55804300  0.50566507  0.57637027    -0.24000
H3800       H  0.61046927  0.53674711  0.59003015     0.15000
H3801       H  0.61530353  0.51760707  0.51885170     0.15000
C3802       C  0.67092727  0.54022615  0.53215970    -0.23900
H3803       H  0.56992589  0.48576764  0.58545856     0.05200
H3804       H  0.54007995  0.49194086  0.56736947     0.08500
H3805       H  0.54608188  0.52407844  0.58642678     0.08500
H3806       H  0.68984850  0.52425378  0.53903406     0.08400
H3807       H  0.67874433  0.56736102  0.53186822     0.08400
H3808       H  0.66816945  0.53175438  0.51666795     0.05200
C3809       C  0.89362240  0.56794931  0.53921204    -0.20600
C3810       C  0.90988828  0.53904821  0.54602143    -0.07100
C3811       C  0.89863756  0.52209277  0.56295812     0.13700
C3812       C  0.87063060  0.53394562  0.57236981    -0.20600
C3813       C  0.85307321  0.56188352  0.56494355    -0.07200
C3814       C  0.86527275  0.57941566  0.54812540     0.13700
C3815       C  0.84847271  0.60942203  0.53867317    -0.24000
H3816       H  0.90240951  0.58053725  0.52607831     0.15000
H3817       H  0.86187534  0.52054701  0.58521874     0.15000
C3818       C  0.91548912  0.49074450  0.57059275    -0.23900
H3819       H  0.86191838  0.61954373  0.52584130     0.05200
H3820       H  0.84608840  0.63075398  0.54931211     0.08500
H3821       H  0.82453175  0.60143155  0.53326575     0.08500
H3822       H  0.94053099  0.49726196  0.57458989     0.08400
H3823       H  0.91589117  0.97057562  0.55936801     0.08400
H3824       H  0.90344905  0.48028307  0.58384155     0.05200
C3825       C  0.61890322  0.93552357  0.44910472    -0.20600
C3826       C  0.63050756  0.95348353  0.43266297    -0.07100
C3827       C  0.61284858  0.98206142  0.42564500     0.13700
C3828       C  0.58420189  0.99150200  0.43519811    -0.20600
C3829       C  0.57332802  0.97362554  0.45172607    -0.07200
C3830       C  0.59097893  0.94553512  0.45885041     0.13700
C3831       C  0.58074403  0.92648992  0.47707674    -0.24000
H3832       H  0.63204118  0.91371750  0.45474341     0.15000
H3833       H  0.57068848  0.01350557  0.43015819     0.15000
C3834       C  0.62401847  0.00316149  0.40846486    -0.23900
H3835       H  0.59779380  0.90572673  0.48085657     0.05200
H3836       H  0.55666363  0.91507343  0.47481703     0.08500
H3837       H  0.57996507  0.94422134  0.48981547     0.08500
H3838       H  0.62606676  0.48764664  0.39531059     0.08400
H3839       H  0.64778623  0.01455213  0.41175925     0.08400
H3840       H  0.60726624  0.02454203  0.40524367     0.05200
C3841       C  0.85851330  0.98050855  0.43278811    -0.20600
C3842       C  0.84818373  0.94631443  0.43375231    -0.07100
C3843       C  0.86784549  0.92173550  0.44330458     0.13700
C3844       C  0.89564813  0.93245325  0.45296278    -0.20600
C3845       C  0.90453437  0.96687281  0.45319486    -0.07200
C3846       C  0.88659662  0.99105633  0.44244284     0.13700
C3847       C  0.89695243  0.02794514  0.44148785    -0.24000
H3848       H  0.84402308  0.99922643  0.42510785     0.15000
H3849       H  0.91002812  0.91408888  0.46101276     0.15000
C3850       C  0.86013398  0.88405962  0.44341940    -0.23900
H3851       H  0.88041564  0.04351503  0.43236385     0.05200
H3852       H  0.92129071  0.02952621  0.43493612     0.08500
H3853       H  0.89757976  0.53935532  0.45623962     0.08500
H3854       H  0.85580909  0.87489803  0.42820292     0.08400
H3855       H  0.83884275  0.87922772  0.45276621     0.08400
H3856       H  0.88019470  0.86870500  0.44947652     0.05200
loop_ 
_geom_bond_atom_site_label_1 
_geom_bond_atom_site_label_2 
_geom_bond_distance 
_geom_bond_site_symmetry_2 
_ccdc_geom_bond_type 
N1            C6   1.359       .  A
N1          C969   1.355       .  A
N1           H33   1.037       .  S
N2           C10   1.356   1_655  A
N2         C1937   1.351       .  A
N3            C7   1.350       .  A
N3          C972   1.352       .  A
N3           H34   1.045   1_545  S
N4           C12   1.344   1_655  A
N4         C1939   1.341       .  A
C5          N965   1.355       .  A
C5           C13   1.388   1_545  A
C5           C21   1.422       .  A
C6           C22   1.423       .  A
C6           C14   1.387       .  A
C7           C15   1.389       .  A
C7           C24   1.415       .  A
C8          N967   1.352       .  A
C8           C23   1.397       .  A
C8           C16   1.380       .  A
C9         N1930   1.351       .  A
C9           C21   1.418       .  A
C9           C17   1.386       .  A
C10          C24   1.419       .  A
C10          C18   1.385       .  A
C11        N1932   1.341       .  A
C11          C19   1.390       .  A
C11          C22   1.408       .  A
C12          C20   1.383       .  A
C12          C23   1.397       .  A
C13         C978   1.371       .  A
C13          H25   1.082   1_565  S
C14         C977   1.371       .  A
C14          H26   1.082       .  S
C15         C980   1.372       .  A
C15          H27   1.083       .  S
C16         C979   1.372       .  A
C16          H28   1.082       .  S
C17        C1946   1.378       .  A
C17          H29   1.082       .  S
C18        C1945   1.378   1_455  A
C18          H30   1.081       .  S
C19        C1948   1.379       .  A
C19          H31   1.082       .  S
C20        C1947   1.379   1_455  A
C20          H32   1.082       .  S
C21         C918   1.493       .  S
C22         C953   1.482       .  S
C23         C937   1.478       .  S
C24         C905   1.538       .  S
N35          C40   1.351       .  A
N35          C39   1.353       .  A
N35          H67   1.039       .  S
N36          C44   1.346   1_655  A
N36        C1971   1.348       .  A
N37          C42   1.353       .  A
N37          C41   1.353       .  A
N37          H68   1.038       .  S
N38          C46   1.352   1_655  A
N38        C1973   1.352       .  A
C39          C47   1.387       .  A
C39          C55   1.414       .  A
C40          C56   1.413       .  A
C40          C48   1.387       .  A
C41          C49   1.389       .  A
C41          C58   1.418       .  A
C42          C57   1.414       .  A
C42          C50   1.385       .  A
C43        N1964   1.348       .  A
C43          C55   1.408       .  A
C43          C51   1.386       .  A
C44          C58   1.407       .  A
C44          C52   1.387       .  A
C45        N1966   1.352       .  A
C45          C53   1.386       .  A
C45          C56   1.414       .  A
C46          C54   1.385       .  A
C46          C57   1.412       .  A
C47          C48   1.375       .  A
C47          H59   1.083       .  S
C48          H60   1.082       .  S
C49          C50   1.375       .  A
C49          H61   1.082       .  S
C50          H62   1.082       .  S
C51        C1980   1.377       .  A
C51          H63   1.082       .  S
C52        C1979   1.377   1_455  A
C52          H64   1.082       .  S
C53        C1982   1.378       .  A
C53          H65   1.082       .  S
C54        C1981   1.378   1_455  A
C54          H66   1.082       .  S
C55         C854   1.484       .  S
C56         C886   1.491       .  S
C57         C873   1.492       .  S
C58         C838   1.479       .  S
N69          N70   1.326       .  A
N69          N75   1.313       .  A
N69         Mn98   2.212       .  S
N70          C77   1.358       .  A
N71          N73   1.313       .  A
N71          N72   1.317       .  A
N71         Mn87   2.184       .  S
N72          C78   1.352       .  A
N73          N74   1.326       .  A
N73         Mn98   2.226       .  S
N74          C78   1.360       .  A
N75          N76   1.314       .  A
N75         Mn87   2.184       .  S
N76          C77   1.351       .  A
C77         C889   1.491       .  S
C78         C870   1.499       .  S
N79          N85   1.313       .  A
N79          N80   1.324       .  A
N79        Mn109   2.215       .  S
N80          C88   1.358       .  A
N81          N82   1.313       .  A
N81          N83   1.313       .  A
N81         Mn87   2.177       .  S
N82          C89   1.347       .  A
N83          N84   1.325       .  A
N83        Mn109   2.212       .  S
N84          C89   1.358       .  A
N85          N86   1.314       .  A
N85         Mn87   2.174       .  S
N86          C88   1.350       .  A
Mn87       Cl111   2.536       .  S
C88         C934   1.489       .  S
C89         C950   1.482       .  S
N90          N91   1.317       .  A
N90          N96   1.317       .  A
N90         Mn98   2.192       .  S
N91          C99   1.351       .  A
N92          N94   1.317       .  A
N92          N93   1.321       .  A
N92        Mn110   2.211       .  S
N93         C100   1.356       .  A
N94          N95   1.320       .  A
N94         Mn98   2.204       .  S
N95         C100   1.353       .  A
N96          N97   1.320       .  A
N96        Mn110   2.205       .  S
N97          C99   1.353       .  A
Mn98       Cl111   2.552       .  S
C99         C790   1.470       .  S
C100        C822   1.484       .  S
N101        N102   1.321       .  A
N101        N107   1.317       .  A
N101       Mn109   2.205       .  S
N102        C112   1.354       .  A
N103        N104   1.321       .  A
N103        N105   1.317       .  A
N103       Mn110   2.217       .  S
N104        C113   1.355       .  A
N105        N106   1.319       .  A
N105       Mn109   2.193       .  S
N106        C113   1.351       .  A
N107        N108   1.318       .  A
N107       Mn110   2.202       .  S
N108        C112   1.352       .  A
Mn109      Cl111   2.554       .  S
Mn110      Cl111   2.531       .  S
C112        C806   1.483       .  S
C113        C774   1.471       .  S
N114        N115   1.325       .  A
N114        N120   1.313       .  A
N114       Mn143   2.205       .  S
N115        C122   1.356       .  A
N116        N118   1.313       .  A
N116        N117   1.314       .  A
N116       Mn132   2.169       .  S
N117        C123   1.346       .  A
N118        N119   1.324       .  A
N118       Mn143   2.208       .  S
N119        C123   1.356       .  A
N120        N121   1.315       .  A
N120       Mn132   2.180       .  S
N121        C122   1.347       .  A
C122        C857   1.470       .  S
C123        C841   1.471       .  S
N124        N130   1.314       .  A
N124        N125   1.326       .  A
N124       Mn154   2.220       .  S
N125        C133   1.357       .  A
N126        N127   1.314       .  A
N126        N128   1.313       .  A
N126       Mn132   2.169       .  S
N127        C134   1.346       .  A
N128        N129   1.329       .  A
N128       Mn154   2.240       .  S
N129        C134   1.364       .  A
N130        N131   1.317       .  A
N130       Mn132   2.187       .  S
N131        C133   1.350       .  A
Mn132      Cl156   2.539       .  S
C133        C902   1.480       .  S
C134        C921   1.499       .  S
N135        N136   1.318       .  A
N135        N141   1.316       .  A
N135       Mn143   2.193       .  S
N136        C144   1.352       .  A
N137        N139   1.316       .  A
N137        N138   1.322       .  A
N137       Mn155   2.212       .  S
N138        C145   1.355       .  A
N139        N140   1.317       .  A
N139       Mn143   2.196       .  S
N140        C145   1.351       .  A
N141        N142   1.321       .  A
N141       Mn155   2.214       .  S
N142        C144   1.356       .  A
Mn143      Cl156   2.550       .  S
C144        C729   1.486       .  S
C145        C758   1.472       .  S
N146        N147   1.319       .  A
N146        N152   1.318       .  A
N146       Mn154   2.197       .  S
N147        C157   1.351       .  A
N148        N149   1.319       .  A
N148        N150   1.317       .  A
N148       Mn155   2.201       .  S
N149        C158   1.352       .  A
N150        N151   1.321       .  A
N150       Mn154   2.215       .  S
N151        C158   1.355       .  A
N152        N153   1.322       .  A
N152       Mn155   2.216       .  S
N153        C157   1.355       .  A
Mn154      Cl156   2.549       .  S
Mn155      Cl156   2.539       .  S
C157        C742   1.474       .  S
C158        C710   1.477       .  S
N159        C163   1.353   1_554  A
N159       C1128   1.351       .  A
N159        H191   1.040   1_565  S
N160        C167   1.351       .  A
N160        C168   1.349       .  A
N161        C165   1.352   1_554  A
N161       C1130   1.353   1_545  A
N161        H192   1.040       .  S
N162        C169   1.349       .  A
N162        C170   1.349       .  A
C163        C171   1.386       .  A
C163        C179   1.412   1_565  A
C164       N1123   1.351       .  A
C164        C180   1.413       .  A
C164        C172   1.387       .  A
C165        C173   1.387   1_545  A
C165        C182   1.414       .  A
C166       N1125   1.353       .  A
C166        C181   1.415       .  A
C166        C174   1.387       .  A
C167        C179   1.411       .  A
C167        C175   1.385       .  A
C168        C182   1.410       .  A
C168        C176   1.386       .  A
C169        C177   1.386       .  A
C169        C180   1.409       .  A
C170        C178   1.386       .  A
C170        C181   1.409       .  A
C171       C1136   1.374   1_556  A
C171        H183   1.082       .  S
C172       C1135   1.374   1_554  A
C172        H184   1.082       .  S
C173       C1138   1.374   1_556  A
C173        H185   1.082       .  S
C174       C1137   1.374   1_554  A
C174        H186   1.082       .  S
C175        C176   1.378       .  A
C175        H187   1.082       .  S
C176        H188   1.082       .  S
C177        C178   1.375       .  A
C177        H189   1.082       .  S
C178        H190   1.082       .  S
C179        C694   1.488       .  S
C180        C665   1.483       .  S
C181        C646   1.485       .  S
C182        C681   1.484       .  S
N193        C198   1.350   1_554  A
N193        C197   1.349       .  A
N193        H225   1.041   1_554  S
N194        C201   1.347       .  A
N194        C202   1.348       .  A
N195        C200   1.351   1_554  A
N195        C199   1.350       .  A
N195        H226   1.040   1_554  S
N196        C203   1.345       .  A
N196        C204   1.344       .  A
C197        C205   1.387       .  A
C197        C213   1.408       .  A
C198        C214   1.411       .  A
C198        C206   1.387       .  A
C199        C207   1.386       .  A
C199        C216   1.411       .  A
C200        C215   1.415       .  A
C200        C208   1.388       .  A
C201        C213   1.406       .  A
C201        C209   1.386       .  A
C202        C216   1.407       .  A
C202        C210   1.386       .  A
C203        C211   1.386       .  A
C203        C214   1.404       .  A
C204        C212   1.386       .  A
C204        C215   1.404       .  A
C205        C206   1.375   1_554  A
C205        H217   1.083       .  S
C206        H218   1.082       .  S
C207        C208   1.376   1_554  A
C207        H219   1.082       .  S
C208        H220   1.082       .  S
C209        C210   1.379       .  A
C209        H221   1.082       .  S
C210        H222   1.082       .  S
C211        C212   1.378       .  A
C211        H223   1.082       .  S
C212        H224   1.082       .  S
C213        C598   1.481       .  S
C214        C633   1.477       .  S
C215        C614   1.477       .  S
C216        C582   1.485       .  S
N227        N228   1.322       .  A
N227        N233   1.313       .  A
N227       Mn256   2.196       .  S
N228        C235   1.353       .  A
N229        N231   1.312       .  A
N229       N2158   1.315       .  A
N229       Mn245   2.179       .  S
N230        C236   1.349       .  A
N230       N2157   1.315       .  A
N231       N2160   1.323       .  A
N231       Mn256   2.198       .  S
N232        C236   1.354       .  A
N232       N2159   1.323       .  A
N233        N234   1.315       .  A
N233       Mn245   2.171       .  S
N234        C235   1.346       .  A
C235        C630   1.460       .  S
C236        C617   1.469       .  S
N237        N243   1.313       .  A
N237       N2166   1.325       .  A
N237       Mn267   2.231       .  S
N238        C246   1.359       .  A
N238       N2165   1.325       .  A
N239        N240   1.312       .  A
N239        N241   1.313       .  A
N239       Mn245   2.167       .  S
N240        C247   1.344       .  A
N241        N242   1.330       .  A
N241       Mn267   2.245       .  S
N242        C247   1.366       .  A
N243       N2172   1.315       .  A
N243       Mn245   2.168       .  S
N244        C246   1.349       .  A
N244       N2171   1.315       .  A
Mn245      Cl269   2.536       .  S
C246        C678   1.492       .  S
C247        C697   1.498       .  S
N248        N249   1.316       .  A
N248        N254   1.316       .  A
N248      Mn2184   2.181   1_455  S
N249        C257   1.348       .  A
N250        N252   1.316       .  A
N250        N251   1.322       .  A
N250       Mn268   2.213       .  S
N251        C258   1.356       .  A
N252        N253   1.319       .  A
N252       Mn256   2.196       .  S
N253        C258   1.352       .  A
N254        N255   1.323       .  A
N254      Mn2196   2.217   1_455  S
N255        C257   1.357       .  A
Mn256      N2176   2.181       .  S
Mn256      Cl269   2.546       .  S
C257        C534   1.473       .  S
C258        C569   1.487       .  S
N259        N260   1.324       .  A
N259        N265   1.319       .  A
N259       Mn267   2.224       .  S
N260        C270   1.357       .  A
N261        N262   1.321       .  A
N261        N263   1.318       .  A
N261      Mn2196   2.216   1_455  S
N262        C271   1.354       .  A
N263        N264   1.320       .  A
N263      Mn2195   2.206   1_455  S
N264        C271   1.353       .  A
N265        N266   1.319       .  A
N265       Mn268   2.206       .  S
N266        C270   1.350       .  A
Mn267      N2191   2.206       .  S
Mn267      Cl269   2.556       .  S
Mn268      N2182   2.217       .  S
Mn268      N2189   2.216       .  S
Mn268      Cl269   2.538       .  S
C270        C550   1.488       .  S
C271        C521   1.480       .  S
N272        C277   1.353       .  A
N272        C276   1.354       .  A
N272        H304   1.040       .  S
N273        C280   1.354       .  A
N273        C281   1.351       .  A
N274        C279   1.355       .  A
N274        C278   1.352       .  A
N274        H305   1.040       .  S
N275        C282   1.349       .  A
N275        C283   1.351       .  A
C276        C284   1.387       .  A
C276        C292   1.417       .  A
C277        C293   1.415       .  A
C277        C285   1.386       .  A
C278        C286   1.388       .  A
C278        C295   1.417       .  A
C279        C294   1.418       .  A
C279        C287   1.387       .  A
C280        C292   1.415       .  A
C280        C288   1.385       .  A
C281        C295   1.415       .  A
C281        C289   1.388       .  A
C282        C290   1.386       .  A
C282        C293   1.409       .  A
C283        C291   1.387       .  A
C283        C294   1.412       .  A
C284        C285   1.376       .  A
C284        H296   1.082       .  S
C285        H297   1.082       .  S
C286        C287   1.379       .  A
C286        H298   1.082       .  S
C287        H299   1.082       .  S
C288        C289   1.374       .  A
C288       H1264   1.082       .  S
C289       H1265   1.082       .  S
C290        C291   1.370       .  A
C290        H302   1.082       .  S
C291        H303   1.082       .  S
C292        C518   1.499       .  S
C293        C537   1.486       .  S
C294        C726   1.495       .  S
C295        C713   1.487       .  S
H300       C1252   1.082   1_545  S
H301       C1253   1.082   1_545  S
N306        C311   1.352       .  A
N306        C310   1.353       .  A
N306        H338   1.039       .  S
N307        C314   1.353       .  A
N307        C315   1.351       .  A
N308        C313   1.354       .  A
N308        C312   1.353       .  A
N308        H339   1.040       .  S
N309        C316   1.351       .  A
N309        C317   1.351       .  A
C310        C318   1.386       .  A
C310        C326   1.413       .  A
C311        C327   1.413       .  A
C311        C319   1.388       .  A
C312        C320   1.386       .  A
C312        C329   1.414       .  A
C313        C328   1.415       .  A
C313        C321   1.387       .  A
C314        C326   1.415       .  A
C314        C322   1.385       .  A
C315        C329   1.414       .  A
C315        C323   1.387       .  A
C316        C324   1.387       .  A
C316        C327   1.413       .  A
C317        C325   1.386       .  A
C317        C328   1.414       .  A
C318        C319   1.373       .  A
C318        H330   1.082       .  S
C319        H331   1.082       .  S
C320        C321   1.375       .  A
C320       H1296   1.082       .  S
C321       H1297   1.082       .  S
C322        C323   1.375       .  A
C322        H334   1.082       .  S
C323        H335   1.082       .  S
C324        C325   1.376       .  A
C324        H336   1.082       .  S
C325        H337   1.082       .  S
C326        C566   1.495       .  S
C327        C761   1.484       .  S
C328        C745   1.490       .  S
C329        C553   1.492       .  S
H332       C1284   1.082   1_545  S
H333       C1285   1.082   1_545  S
N340        C345   1.355       .  A
N340        C344   1.352       .  A
N340        H372   1.036       .  S
N341        C348   1.351       .  A
N341        C349   1.352       .  A
N342        C347   1.354       .  A
N342        C346   1.352       .  A
N342        H373   1.032       .  S
N343        C350   1.348       .  A
N343        C351   1.348       .  A
C344        C352   1.386       .  A
C344        C360   1.413       .  A
C345        C361   1.418       .  A
C345        C353   1.388       .  A
C346        C354   1.386       .  A
C346        C363   1.414       .  A
C347        C362   1.417       .  A
C347        C355   1.387       .  A
C348        C360   1.411       .  A
C348        C356   1.386       .  A
C349        C363   1.413       .  A
C349        C357   1.386       .  A
C350        C358   1.387       .  A
C350        C361   1.410       .  A
C351        C359   1.386       .  A
C351        C362   1.408       .  A
C352        C353   1.378       .  A
C352        H364   1.082       .  S
C353        H365   1.082       .  S
C354        C355   1.378       .  A
C354        H366   1.082       .  S
C355        H367   1.082       .  S
C356        C357   1.369       .  A
C356       H1332   1.082   1_545  S
C357       H1333   1.082   1_545  S
C358        C359   1.372       .  A
C358        H370   1.082       .  S
C359        H371   1.082       .  S
C360        C486   1.483       .  S
C361        C505   1.491       .  S
C362        C793   1.485       .  S
C363        C777   1.485       .  S
H368       C1320   1.082       .  S
H369       C1321   1.082       .  S
N374        C379   1.351       .  A
N374        C378   1.352       .  A
N374        H406   1.040       .  S
N375        C382   1.351       .  A
N375        C383   1.350       .  A
N376        C381   1.353       .  A
N376        C380   1.352       .  A
N376        H407   1.038       .  S
N377        C384   1.350       .  A
N377        C385   1.350       .  A
C378        C386   1.386       .  A
C378        C394   1.412       .  A
C379        C395   1.412       .  A
C379        C387   1.387       .  A
C380        C388   1.388       .  A
C380        C397   1.416       .  A
C381        C396   1.414       .  A
C381        C389   1.387       .  A
C382        C394   1.411       .  A
C382        C390   1.385       .  A
C383        C397   1.412       .  A
C383        C391   1.387       .  A
C384        C392   1.386       .  A
C384        C395   1.411       .  A
C385        C393   1.387       .  A
C385        C396   1.413       .  A
C386        C387   1.375       .  A
C386        H398   1.082       .  S
C387        H399   1.082       .  S
C388        C389   1.376       .  A
C388       H1364   1.082   1_545  S
C389       H1365   1.082   1_545  S
C390        C391   1.376       .  A
C390        H402   1.082       .  S
C391        H403   1.082       .  S
C392        C393   1.375       .  A
C392        H404   1.082       .  S
C393        H405   1.082       .  S
C394        C825   1.491       .  S
C395        C470   1.483       .  S
C396        C457   1.487       .  S
C397        C809   1.488       .  S
H400       C1352   1.082       .  S
H401       C1353   1.082       .  S
N408        N409   1.325       .  A
N408        N414   1.312       .  A
N408       Mn437   2.218       .  S
N409        C416   1.360       .  A
N410        N412   1.313       .  A
N410       N2339   1.313       .  A
N410       Mn426   2.170       .  S
N411        C417   1.349       .  A
N411       N2338   1.313       .  A
N412       N2341   1.325       .  A
N412       Mn437   2.218       .  S
N413        C417   1.358       .  A
N413       N2340   1.325       .  A
N414        N415   1.311       .  A
N414       Mn426   2.156       .  S
N415        C416   1.344       .  A
C416        C601   1.481       .  S
C417        C585   1.485       .  S
N418        N424   1.312       .  A
N418       N2347   1.324       .  A
N418       Mn448   2.208       .  S
N419        C427   1.357       .  A
N419       N2346   1.324       .  A
N420        N421   1.316       .  A
N420        N422   1.313       .  A
N420       Mn426   2.179       .  S
N421        C428   1.348       .  A
N422        N423   1.322       .  A
N422       Mn448   2.201       .  S
N423        C428   1.354       .  A
N424       N2353   1.314       .  A
N424       Mn426   2.170       .  S
N425        C427   1.346       .  A
N425       N2352   1.314       .  A
Mn426      Cl450   2.532       .  S
C427        C649   1.475       .  S
C428        C662   1.469       .  S
N429        N430   1.319       .  A
N429        N435   1.316       .  A
N429      Mn2365   2.199   1_455  S
N430        C438   1.353       .  A
N431        N433   1.317       .  A
N431        N432   1.321       .  A
N431       Mn449   2.211       .  S
N432        C439   1.354       .  A
N433        N434   1.319       .  A
N433       Mn437   2.202       .  S
N434        C439   1.352       .  A
N435        N436   1.319       .  A
N435      Mn2377   2.207   1_455  S
N436        C438   1.354       .  A
Mn437      N2357   2.199       .  S
Mn437      Cl450   2.549       .  S
C438        C502   1.484       .  S
C439        C473   1.472       .  S
N440        N441   1.317       .  A
N440        N446   1.316       .  A
N440       Mn448   2.192       .  S
N441        C451   1.350       .  A
N442        N443   1.320       .  A
N442        N444   1.316       .  A
N442      Mn2377   2.209   1_455  S
N443        C452   1.355       .  A
N444        N445   1.318       .  A
N444      Mn2376   2.188   1_455  S
N445        C452   1.350       .  A
N446        N447   1.322       .  A
N446       Mn449   2.212       .  S
N447        C451   1.356       .  A
Mn448      N2372   2.188       .  S
Mn448      Cl450   2.546       .  S
Mn449      N2363   2.207       .  S
Mn449      N2370   2.209       .  S
Mn449      Cl450   2.538       .  S
C451        C454   1.471       .  S
C452        C489   1.473       .  S
C453        C454   1.403       .  A
C453       C1422   1.401       .  A
C453        H460   1.082       .  S
C454       C1419   1.408       .  A
C455        C456   1.405   1_565  A
C455       C1418   1.408       .  A
C455        C462   1.505       .  S
C456        C457   1.405       .  A
C456        H461   1.084       .  S
C457        C458   1.413       .  A
C458       C1417   1.401   1_545  A
C458        C459   1.508       .  S
C459        H464   1.110       .  S
C459        H465   1.109       .  S
C459       H1427   1.111       .  S
C462        H468   1.111       .  S
C462       H1430   1.110       .  S
C462       H1431   1.111       .  S
H463       C1423   1.111       .  S
H466       C1426   1.110       .  S
H467       C1426   1.111       .  S
C469        C470   1.400       .  A
C469        C474   1.400       .  A
C469        H476   1.084       .  S
C470        C471   1.415       .  A
C471        C472   1.404       .  A
C471        C478   1.507       .  S
C472        C473   1.401       .  A
C472        H477   1.084       .  S
C473        C474   1.414       .  A
C474        C475   1.507       .  S
C475        H479   1.111       .  S
C475        H480   1.109       .  S
C475        H481   1.110       .  S
C478        H482   1.110       .  S
C478        H483   1.108       .  S
C478        H484   1.110       .  S
C485        C490   1.401       .  A
C485       C1450   1.401       .  A
C485        H492   1.084       .  S
C486        C487   1.414       .  A
C486       C1449   1.401       .  A
C487        C488   1.402   1_545  A
C487        C494   1.507       .  S
C488       C1453   1.401       .  A
C488        H493   1.085       .  S
C489        C490   1.415       .  A
C489       C1452   1.401       .  A
C490        C491   1.507       .  S
C491        H495   1.111       .  S
C491        H496   1.110       .  S
C491        H497   1.108       .  S
C494        H498   1.108       .  S
C494        H499   1.110       .  S
C494        H500   1.111       .  S
C501        C502   1.406       .  A
C501        C506   1.403       .  A
C501        H508   1.085       .  S
C502        C503   1.419       .  A
C503        C504   1.401       .  A
C503        C510   1.508       .  S
C504        C505   1.404       .  A
C504        H509   1.085       .  S
C505        C506   1.413       .  A
C506        C507   1.507       .  S
C507        H511   1.110       .  S
C507        H512   1.108       .  S
C507        H513   1.110       .  S
C510        H514   1.107       .  S
C510       H2443   1.110       .  S
C510       H2444   1.111       .  S
H515       C2438   1.110       .  S
H516       C2438   1.111       .  S
C517        C518   1.405       .  A
C517       C1486   1.404       .  A
C517       H1488   1.084       .  S
C518        C519   1.420       .  A
C519        C520   1.407       .  A
C519        C526   1.508       .  S
C520       C1485   1.401       .  A
C520        H525   1.084       .  S
C521        C522   1.416   1_545  A
C521       C1484   1.401       .  A
C522       C1481   1.404       .  A
C522        C523   1.509       .  S
C523        H527   1.111   1_455  S
C523        H528   1.108   1_565  S
C523        H529   1.110       .  S
H524       C1481   1.084       .  S
C526        H530   1.107       .  S
C526        H531   1.110       .  S
C526        H532   1.110       .  S
C533        C534   1.399       .  A
C533        C538   1.404       .  A
C533        H540   1.084       .  S
C534        C535   1.418       .  A
C535        C536   1.401       .  A
C535        C542   1.509       .  S
C536        C537   1.399       .  A
C536        H541   1.084       .  S
C537        C538   1.415       .  A
C538        C539   1.507       .  S
C539        H543   1.111       .  S
C539        H544   1.110       .  S
C539        H545   1.109       .  S
C542        H546   1.109       .  S
C542        H547   1.108   1_455  S
C542        H548   1.111   1_455  S
C549        C554   1.407       .  A
C549       C1514   1.404       .  A
C549        H556   1.084       .  S
C550        C551   1.422       .  A
C550       C1513   1.404       .  A
C551       C1516   1.404   1_545  A
C551        C558   1.509       .  S
C552        C553   1.400       .  A
C552       C1515   1.404       .  A
C552        H557   1.084       .  S
C553        C554   1.412       .  A
C554        C555   1.507       .  S
C555        H559   1.110       .  S
C555        H560   1.108       .  S
C555        H561   1.111       .  S
C558        H562   1.107       .  S
C558        H563   1.109       .  S
C558        H564   1.111       .  S
C565        C566   1.404       .  A
C565        C570   1.405       .  A
C565        H572   1.084       .  S
C566        C567   1.415       .  A
C567        C568   1.404       .  A
C567        C574   1.507       .  S
C568        C569   1.406       .  A
C568        H573   1.085       .  S
C569        C570   1.418       .  A
C570        C571   1.508       .  S
C571        H575   1.111       .  S
C571        H576   1.110       .  S
C571        H577   1.108       .  S
C574        H578   1.110       .  S
C574        H579   1.107       .  S
C574        H580   1.110       .  S
C581        C582   1.404       .  A
C581        C586   1.409       .  A
C581        H588   1.084       .  S
C582        C583   1.412       .  A
C583        C584   1.393       .  A
C583        C590   1.510       .  S
C584        C585   1.405       .  A
C584        H589   1.084       .  S
C585        C586   1.418       .  A
C586        C587   1.506       .  S
C587        H591   1.111       .  S
C587        H592   1.109       .  S
C587        H593   1.111       .  S
C590        H594   1.110       .  S
C590        H595   1.108       .  S
C590        H596   1.111       .  S
C597        C598   1.398       .  A
C597        C602   1.394       .  A
C597        H604   1.085       .  S
C598        C599   1.409       .  A
C599        C600   1.405       .  A
C599        C606   1.505       .  S
C600        C601   1.407       .  A
C600        H605   1.083       .  S
C601        C602   1.423       .  A
C602        C603   1.512       .  S
C603        H607   1.111       .  S
C603        H608   1.110       .  S
C603        H609   1.108       .  S
C606        H610   1.110       .  S
C606        H611   1.108       .  S
C606        H612   1.111       .  S
C613        C614   1.402       .  A
C613        C618   1.403       .  A
C613        H620   1.084       .  S
C614        C615   1.408       .  A
C615        C616   1.398       .  A
C615        C622   1.507       .  S
C616        C617   1.403       .  A
C616        H621   1.085       .  S
C617        C618   1.411       .  A
C618        C619   1.506       .  S
C619        H623   1.111       .  S
C619        H624   1.110       .  S
C619        H625   1.110       .  S
C622        H626   1.110       .  S
C622        H627   1.110       .  S
C622        H628   1.111       .  S
C629        C630   1.399       .  A
C629        C634   1.401       .  A
C629        H636   1.084       .  S
C630        C631   1.411       .  A
C631        C632   1.398       .  A
C631        C638   1.508       .  S
C632        C633   1.400       .  A
C632        H637   1.084       .  S
C633        C634   1.413       .  A
C634        C635   1.507       .  S
C635        H639   1.111       .  S
C635        H640   1.109       .  S
C635        H641   1.110       .  S
C638        H642   1.108       .  S
C638        H643   1.110       .  S
C638        H644   1.111       .  S
C645        C646   1.399       .  A
C645        C650   1.400       .  A
C645        H652   1.084       .  S
C646        C647   1.413       .  A
C647        C648   1.404       .  A
C647       C1618   1.506       .  S
C648        C649   1.402       .  A
C648       H1617   1.084       .  S
C649        C650   1.418       .  A
C650        C651   1.508       .  S
C651        H655   1.111       .  S
C651        H656   1.107       .  S
C651        H657   1.110       .  S
H653       C1612   1.084   1_545  S
C654       C1611   1.506   1_545  S
C654        H658   1.110       .  S
C654        H659   1.110       .  S
C654        H660   1.111       .  S
C661        C662   1.400       .  A
C661        C666   1.402       .  A
C661        H668   1.084       .  S
C662        C663   1.414       .  A
C663        C664   1.401       .  A
C663        C670   1.508       .  S
C664        C665   1.400       .  A
C664        H669   1.084       .  S
C665        C666   1.414       .  A
C666        C667   1.507       .  S
C667        H671   1.111       .  S
C667        H673   1.109       .  S
C667       H1636   1.110       .  S
C670        H674   1.110       .  S
C670        H675   1.105       .  S
C670        H676   1.111       .  S
H672       C1631   1.110       .  S
C677        C678   1.411       .  A
C677        C682   1.400       .  A
C677        H684   1.083       .  S
C678        C679   1.420       .  A
C679        C680   1.408       .  A
C679        C686   1.506       .  S
C680        C681   1.401       .  A
C680        H685   1.084   1_545  S
C681        C682   1.407       .  A
C682        C683   1.508       .  S
C683        H687   1.111       .  S
C683        H688   1.110       .  S
C683        H689   1.110       .  S
C686        H690   1.110       .  S
C686       H1655   1.110   1_545  S
C686       H1656   1.111   1_545  S
H691       C1650   1.110       .  S
H692       C1650   1.111       .  S
C693        C694   1.395       .  A
C693        C698   1.401       .  A
C693        H700   1.085       .  S
C694        C695   1.413       .  A
C695        C696   1.409       .  A
C695        C702   1.505   1_545  S
C696        C697   1.408       .  A
C696        H701   1.084       .  S
C697        C698   1.429       .  A
C698        C699   1.511       .  S
C699        H703   1.111       .  S
C699        H704   1.109       .  S
C699        H705   1.110       .  S
C702        H706   1.110       .  S
C702        H707   1.109       .  S
C702        H708   1.110       .  S
C709        C710   1.404       .  A
C709       C1678   1.402   1_545  A
C709        H716   1.083       .  S
C710        C711   1.411   1_545  A
C711       C1676   1.405       .  A
C711        C718   1.506   1_565  S
C712        C713   1.403       .  A
C712       C1675   1.405       .  A
C712        H717   1.084       .  S
C713        C714   1.412       .  A
C714       C1673   1.402       .  A
C714        C715   1.508       .  S
C715        H719   1.111       .  S
C715        H720   1.110       .  S
C715        H721   1.109       .  S
C718        H722   1.109   1_545  S
C718        H723   1.111       .  S
C718       H1688   1.111   1_545  S
H724       C1682   1.111       .  S
C725        C726   1.404       .  A
C725        C730   1.404       .  A
C725        H732   1.084       .  S
C726        C727   1.414       .  A
C727        C728   1.404       .  A
C727        C734   1.507       .  S
C728        C729   1.406       .  A
C728        H733   1.085       .  S
C729        C730   1.418       .  A
C730        C731   1.508       .  S
C731        H735   1.111       .  S
C731        H736   1.106       .  S
C731        H737   1.110       .  S
C734        H738   1.110       .  S
C734        H739   1.107       .  S
C734        H740   1.110       .  S
C741        C742   1.399       .  A
C741       C1710   1.405   1_545  A
C741        H748   1.084       .  S
C742       C1707   1.414       .  A
C743        C744   1.403       .  A
C743       C1706   1.414       .  A
C743        C750   1.507       .  S
C744        C745   1.402       .  A
C744        H749   1.084       .  S
C745        C746   1.417       .  A
C746       C1705   1.405       .  A
C746        C747   1.506       .  S
C747        H752   1.108       .  S
C747        H753   1.110       .  S
C747       H1715   1.110       .  S
C750        H756   1.111       .  S
C750       H1718   1.109       .  S
C750       H1719   1.109       .  S
H751       C1711   1.111   1_545  S
H754       C1714   1.109   1_565  S
H755       C1714   1.109       .  S
C757        C758   1.401       .  A
C757        C762   1.405       .  A
C757        H764   1.084       .  S
C758        C759   1.414       .  A
C759        C760   1.400       .  A
C759        C766   1.506       .  S
C760        C761   1.399       .  A
C760        H765   1.084       .  S
C761        C762   1.413       .  A
C762        C763   1.506       .  S
C763        H767   1.111       .  S
C763        H768   1.110       .  S
C763        H769   1.110       .  S
C766        H770   1.107       .  S
C766        H771   1.109       .  S
C766        H772   1.111       .  S
C773        C774   1.401       .  A
C773        C778   1.400       .  A
C773        H780   1.084       .  S
C774       C1739   1.409       .  A
C775        C776   1.406   1_565  A
C775       C1738   1.409       .  A
C775        C782   1.505       .  S
C776        C777   1.405       .  A
C776        H781   1.084       .  S
C777       C1742   1.414       .  A
C778       C1741   1.414       .  A
C778        C779   1.509       .  S
C779        H783   1.110       .  S
C779        H785   1.111       .  S
C779       H1748   1.108       .  S
C782        H786   1.110       .  S
C782        H787   1.111       .  S
C782        H788   1.111       .  S
H784       C1743   1.108       .  S
C789        C790   1.398       .  A
C789        C794   1.403       .  A
C789        H796   1.084       .  S
C790        C791   1.416       .  A
C791        C792   1.402       .  A
C791        C798   1.508       .  S
C792        C793   1.400       .  A
C792        H797   1.084       .  S
C793        C794   1.415       .  A
C794        C795   1.507       .  S
C795        H799   1.111       .  S
C795        H800   1.110       .  S
C795        H801   1.109       .  S
C798        H802   1.109       .  S
C798        H803   1.110       .  S
C798        H804   1.111       .  S
C805        C810   1.405       .  A
C805       C1770   1.404   1_545  A
C805        H812   1.084       .  S
C806        C807   1.421       .  A
C806       C1769   1.404       .  A
C807       C1772   1.401       .  A
C807        C814   1.509       .  S
C808        C809   1.400       .  A
C808       C1771   1.401   1_545  A
C808        H813   1.084       .  S
C809        C810   1.413       .  A
C810        C811   1.507       .  S
C811        H815   1.111       .  S
C811        H816   1.108       .  S
C811        H817   1.110       .  S
C814        H818   1.110       .  S
C814        H819   1.110       .  S
C814        H820   1.111       .  S
C821        C822   1.405       .  A
C821        C826   1.403       .  A
C821        H828   1.084       .  S
C822        C823   1.414       .  A
C823        C824   1.405       .  A
C823        C830   1.507       .  S
C824        C825   1.404       .  A
C824        H829   1.084       .  S
C825        C826   1.415       .  A
C826        C827   1.509       .  S
C827        H831   1.111       .  S
C827        H832   1.107       .  S
C827        H833   1.110       .  S
C830        H834   1.109       .  S
C830        H835   1.110       .  S
C830        H836   1.111       .  S
C837        C838   1.398       .  A
C837        C842   1.398       .  A
C837        H844   1.084       .  S
C838        C839   1.410       .  A
C839        C840   1.404       .  A
C839        C846   1.505       .  S
C840        C841   1.403       .  A
C840        H845   1.084       .  S
C841        C842   1.417       .  A
C842        C843   1.510       .  S
C843        H847   1.111       .  S
C843        H848   1.110       .  S
C843        H849   1.108       .  S
C846        H850   1.110       .  S
C846        H851   1.110       .  S
C846        H852   1.111       .  S
C853        C854   1.405       .  A
C853        C858   1.405       .  A
C853        H860   1.084       .  S
C854        C855   1.410       .  A
C855        C856   1.400       .  A
C855        C862   1.507       .  S
C856        C857   1.403       .  A
C856        H861   1.084       .  S
C857        C858   1.410       .  A
C858        C859   1.506       .  S
C859        H863   1.111       .  S
C859        H864   1.110       .  S
C859        H865   1.111       .  S
C862        H866   1.109       .  S
C862        H867   1.111       .  S
C862        H868   1.111       .  S
C869        C870   1.409       .  A
C869        C874   1.401       .  A
C869        H876   1.084       .  S
C870        C871   1.421       .  A
C871        C872   1.413       .  A
C871        C878   1.505       .  S
C872        C873   1.403       .  A
C872        H877   1.084       .  S
C873        C874   1.408       .  A
C874        C875   1.507       .  S
C875        H879   1.107       .  S
C875        H880   1.110       .  S
C875        H881   1.110       .  S
C878        H882   1.110       .  S
C878        H883   1.110       .  S
C878        H884   1.111       .  S
C885        C886   1.406       .  A
C885        C890   1.412       .  A
C885        H892   1.084       .  S
C886        C887   1.414       .  A
C887        C888   1.393       .  A
C887        C894   1.512       .  S
C888        C889   1.405       .  A
C888        H893   1.083       .  S
C889        C890   1.419       .  A
C890        C891   1.506       .  S
C891        H895   1.111       .  S
C891        H896   1.110       .  S
C891        H897   1.110       .  S
C894        H898   1.106       .  S
C894        H899   1.111       .  S
C894        H900   1.110       .  S
C901        C902   1.402       .  A
C901        C906   1.414       .  A
C901        H908   1.084       .  S
C902        C903   1.406       .  A
C903        C904   1.399       .  A
C903        C910   1.510       .  S
C904        C905   1.417       .  A
C904        H909   1.077       .  S
C905        C906   1.429       .  A
C906        C907   1.507       .  S
C907        H911   1.111   1_545  S
C907        H912   1.107   1_545  S
C907        H913   1.110       .  S
C910        H914   1.110       .  S
C910        H915   1.109       .  S
C910        H916   1.111       .  S
C917        C918   1.397       .  A
C917        C922   1.402       .  A
C917        H924   1.085       .  S
C918        C919   1.411       .  A
C919        C920   1.410       .  A
C919        C926   1.505   1_545  S
C920        C921   1.408       .  A
C920        H925   1.083       .  S
C921        C922   1.428       .  A
C922        C923   1.510       .  S
C923        H927   1.111       .  S
C923        H928   1.107       .  S
C923        H929   1.110       .  S
C926        H930   1.110       .  S
C926        H932   1.111       .  S
C926       H1895   1.110       .  S
H931       C1890   1.110       .  S
C933        C934   1.408       .  A
C933        C938   1.396       .  A
C933        H940   1.083       .  S
C934        C935   1.421       .  A
C935        C936   1.409       .  A
C935        C942   1.506       .  S
C936        C937   1.400       .  A
C936        H941   1.084       .  S
C937        C938   1.408       .  A
C938        C939   1.509       .  S
C939        H943   1.109       .  S
C939        H944   1.110       .  S
C939        H945   1.109       .  S
C942        H947   1.110       .  S
C942        H948   1.111       .  S
C942       H1910   1.110       .  S
H946       C1906   1.110   1_565  S
C949        C950   1.405       .  A
C949        C954   1.406       .  A
C949        H956   1.084       .  S
C950        C951   1.421       .  A
C951        C952   1.398       .  A
C951        C958   1.506       .  S
C952        C953   1.394       .  A
C952        H957   1.085       .  S
C953        C954   1.411       .  A
C954        C955   1.505       .  S
C955        H959   1.111       .  S
C955        H960   1.111       .  S
C955       H1925   1.110       .  S
C958        H962   1.110       .  S
C958        H963   1.109       .  S
C958        H964   1.110       .  S
H961       C1919   1.110       .  S
N965        C970   1.359   1_545  A
N965        H997   1.037       .  S
N966       C2901   1.351       .  A
N966        C974   1.356   1_655  A
N967        C971   1.350       .  A
N967        H998   1.045       .  S
N968       C2903   1.341       .  A
N968        C976   1.344   1_655  A
C969        C977   1.388       .  A
C969        C985   1.422       .  A
C970        C986   1.423       .  A
C970        C978   1.387       .  A
C971        C979   1.389       .  A
C971        C988   1.415       .  A
C972        C987   1.397   1_545  A
C972        C980   1.380       .  A
C973       N2894   1.351       .  A
C973        C985   1.418       .  A
C973        C981   1.386       .  A
C974        C988   1.419       .  A
C974        C982   1.385       .  A
C975       N2896   1.341       .  A
C975        C983   1.390       .  A
C975        C986   1.408       .  A
C976        C984   1.383       .  A
C976        C987   1.397       .  A
C977        H989   1.082       .  S
C978        H990   1.082       .  S
C979        H991   1.083       .  S
C980        H992   1.082       .  S
C981       C2910   1.378       .  A
C981        H993   1.082       .  S
C982       C2909   1.378   1_455  A
C982        H994   1.081       .  S
C983       C2912   1.379       .  A
C983        H995   1.082       .  S
C984       C2911   1.379   1_455  A
C984        H996   1.082       .  S
C985       C1882   1.492       .  S
C986       C1917   1.483       .  S
C987       C1901   1.478       .  S
C988       C1869   1.538       .  S
N999       C1004   1.351       .  A
N999       C1003   1.353       .  A
N999       H1031   1.039       .  S
N1000      C2935   1.348       .  A
N1000      C1008   1.346   1_655  A
N1001      C1006   1.353       .  A
N1001      C1005   1.353       .  A
N1001      H1032   1.038       .  S
N1002      C2937   1.352       .  A
N1002      C1010   1.352   1_655  A
C1003      C1011   1.387       .  A
C1003      C1019   1.414       .  A
C1004      C1020   1.413       .  A
C1004      C1012   1.387       .  A
C1005      C1013   1.389       .  A
C1005      C1022   1.418       .  A
C1006      C1021   1.414       .  A
C1006      C1014   1.386       .  A
C1007      N2928   1.348       .  A
C1007      C1019   1.408       .  A
C1007      C1015   1.386       .  A
C1008      C1022   1.408       .  A
C1008      C1016   1.387       .  A
C1009      N2930   1.352       .  A
C1009      C1017   1.386       .  A
C1009      C1020   1.414       .  A
C1010      C1018   1.385       .  A
C1010      C1021   1.412       .  A
C1011      C1012   1.375       .  A
C1011      H1023   1.083       .  S
C1012      H1024   1.082       .  S
C1013      C1014   1.375       .  A
C1013      H1025   1.082       .  S
C1014      H1026   1.082       .  S
C1015      C2944   1.377       .  A
C1015      H1027   1.082       .  S
C1016      C2943   1.377   1_455  A
C1016      H1028   1.082       .  S
C1017      C2946   1.378       .  A
C1017      H1029   1.082       .  S
C1018      C2945   1.378   1_455  A
C1018      H1030   1.082       .  S
C1019      C1818   1.484       .  S
C1020      C1850   1.491       .  S
C1021      C1837   1.492       .  S
C1022      C1802   1.479       .  S
N1033      N1034   1.326       .  A
N1033      N1039   1.313       .  A
N1033     Mn1062   2.213       .  S
N1034      C1041   1.358       .  A
N1035      N1037   1.313       .  A
N1035      N1036   1.317       .  A
N1035     Mn1051   2.184       .  S
N1036      C1042   1.352       .  A
N1037      N1038   1.327       .  A
N1037     Mn1062   2.226       .  S
N1038      C1042   1.360       .  A
N1039      N1040   1.314       .  A
N1039     Mn1051   2.184       .  S
N1040      C1041   1.351       .  A
C1041      C1853   1.491       .  S
C1042      C1834   1.499       .  S
N1043      N1049   1.313       .  A
N1043      N1044   1.324       .  A
N1043     Mn1073   2.214       .  S
N1044      C1052   1.358       .  A
N1045      N1046   1.313       .  A
N1045      N1047   1.313       .  A
N1045     Mn1051   2.176       .  S
N1046      C1053   1.347       .  A
N1047      N1048   1.325       .  A
N1047     Mn1073   2.212       .  S
N1048      C1053   1.358       .  A
N1049      N1050   1.314       .  A
N1049     Mn1051   2.174       .  S
N1050      C1052   1.350       .  A
Mn1051    Cl1075   2.536       .  S
C1052      C1898   1.489       .  S
C1053      C1914   1.482       .  S
N1054      N1055   1.317       .  A
N1054      N1060   1.317       .  A
N1054     Mn1062   2.192       .  S
N1055      C1063   1.350       .  A
N1056      N1058   1.317       .  A
N1056      N1057   1.321       .  A
N1056     Mn1074   2.212       .  S
N1057      C1064   1.355       .  A
N1058      N1059   1.320       .  A
N1058     Mn1062   2.204       .  S
N1059      C1064   1.353       .  A
N1060      N1061   1.320       .  A
N1060     Mn1074   2.205       .  S
N1061      C1063   1.353       .  A
Mn1062    Cl1075   2.552       .  S
C1063      C1754   1.470       .  S
C1064      C1786   1.484       .  S
N1065      N1066   1.321       .  A
N1065      N1071   1.317       .  A
N1065     Mn1073   2.204       .  S
N1066      C1076   1.354       .  A
N1067      N1068   1.321       .  A
N1067      N1069   1.316       .  A
N1067     Mn1074   2.217       .  S
N1068      C1077   1.355       .  A
N1069      N1070   1.319       .  A
N1069     Mn1073   2.193       .  S
N1070      C1077   1.351       .  A
N1071      N1072   1.318       .  A
N1071     Mn1074   2.203       .  S
N1072      C1076   1.352       .  A
Mn1073    Cl1075   2.555       .  S
Mn1074    Cl1075   2.531       .  S
C1076      C1770   1.483       .  S
C1077      C1738   1.471       .  S
N1078      N1079   1.325       .  A
N1078      N1084   1.313       .  A
N1078     Mn1107   2.206       .  S
N1079      C1086   1.356       .  A
N1080      N1082   1.313       .  A
N1080      N1081   1.314       .  A
N1080     Mn1096   2.169       .  S
N1081      C1087   1.346       .  A
N1082      N1083   1.324       .  A
N1082     Mn1107   2.208       .  S
N1083      C1087   1.356       .  A
N1084      N1085   1.315       .  A
N1084     Mn1096   2.180       .  S
N1085      C1086   1.347       .  A
C1086      C1821   1.471       .  S
C1087      C1805   1.471       .  S
N1088      N1094   1.314       .  A
N1088      N1089   1.326       .  A
N1088     Mn1118   2.219       .  S
N1089      C1097   1.357       .  A
N1090      N1091   1.314       .  A
N1090      N1092   1.313       .  A
N1090     Mn1096   2.169       .  S
N1091      C1098   1.346       .  A
N1092      N1093   1.329       .  A
N1092     Mn1118   2.240       .  S
N1093      C1098   1.364       .  A
N1094      N1095   1.317       .  A
N1094     Mn1096   2.187       .  S
N1095      C1097   1.350       .  A
Mn1096    Cl1120   2.539       .  S
C1097      C1866   1.480       .  S
C1098      C1885   1.499       .  S
N1099      N1100   1.318       .  A
N1099      N1105   1.316       .  A
N1099     Mn1107   2.193       .  S
N1100      C1108   1.352       .  A
N1101      N1103   1.316       .  A
N1101      N1102   1.322       .  A
N1101     Mn1119   2.212       .  S
N1102      C1109   1.355       .  A
N1103      N1104   1.317       .  A
N1103     Mn1107   2.196       .  S
N1104      C1109   1.351       .  A
N1105      N1106   1.321       .  A
N1105     Mn1119   2.215       .  S
N1106      C1108   1.356       .  A
Mn1107    Cl1120   2.550       .  S
C1108      C1693   1.486       .  S
C1109      C1722   1.472       .  S
N1110      N1111   1.319       .  A
N1110      N1116   1.318       .  A
N1110     Mn1118   2.197       .  S
N1111      C1121   1.351       .  A
N1112      N1113   1.319       .  A
N1112      N1114   1.317       .  A
N1112     Mn1119   2.201       .  S
N1113      C1122   1.353       .  A
N1114      N1115   1.321       .  A
N1114     Mn1118   2.215       .  S
N1115      C1122   1.355       .  A
N1116      N1117   1.322       .  A
N1116     Mn1119   2.216       .  S
N1117      C1121   1.355       .  A
Mn1118    Cl1120   2.549       .  S
Mn1119    Cl1120   2.539       .  S
C1121      C1706   1.474       .  S
C1122      C1674   1.477       .  S
N1123      C1127   1.353   1_554  A
N1123      H1155   1.040       .  S
N1124      C1131   1.351       .  A
N1124      C1132   1.349       .  A
N1125      C1129   1.352   1_554  A
N1125      H1156   1.039       .  S
N1126      C1133   1.348       .  A
N1126      C1134   1.349       .  A
C1127      C1135   1.386       .  A
C1127      C1143   1.411       .  A
C1128      C1144   1.413       .  A
C1128      C1136   1.387       .  A
C1129      C1137   1.387       .  A
C1129      C1146   1.414       .  A
C1130      C1145   1.415       .  A
C1130      C1138   1.387       .  A
C1131      C1143   1.411       .  A
C1131      C1139   1.385       .  A
C1132      C1146   1.410       .  A
C1132      C1140   1.386       .  A
C1133      C1141   1.387       .  A
C1133      C1144   1.409       .  A
C1134      C1142   1.386       .  A
C1134      C1145   1.409       .  A
C1135      H1147   1.082       .  S
C1136      H1148   1.082       .  S
C1137      H1149   1.082       .  S
C1138      H1150   1.082       .  S
C1139      C1140   1.378       .  A
C1139      H1151   1.082       .  S
C1140      H1152   1.082       .  S
C1141      C1142   1.375       .  A
C1141      H1153   1.082       .  S
C1142      H1154   1.082       .  S
C1143      C1658   1.489       .  S
C1144      C1629   1.482       .  S
C1145      C1610   1.485       .  S
C1146      C1645   1.484       .  S
N1157      C1162   1.350   1_554  A
N1157      C1161   1.349       .  A
N1157      H1189   1.041   1_554  S
N1158      C1165   1.347       .  A
N1158      C1166   1.348       .  A
N1159      C1164   1.351   1_554  A
N1159      C1163   1.350       .  A
N1159      H1190   1.040   1_554  S
N1160      C1167   1.345       .  A
N1160      C1168   1.344       .  A
C1161      C1169   1.387       .  A
C1161      C1177   1.408       .  A
C1162      C1178   1.411       .  A
C1162      C1170   1.387       .  A
C1163      C1171   1.386       .  A
C1163      C1180   1.411       .  A
C1164      C1179   1.415       .  A
C1164      C1172   1.389       .  A
C1165      C1177   1.406       .  A
C1165      C1173   1.386       .  A
C1166      C1180   1.407       .  A
C1166      C1174   1.386       .  A
C1167      C1175   1.386       .  A
C1167      C1178   1.404       .  A
C1168      C1176   1.386       .  A
C1168      C1179   1.404       .  A
C1169      C1170   1.375   1_554  A
C1169      H1181   1.083       .  S
C1170      H1182   1.082       .  S
C1171      C1172   1.376   1_554  A
C1171      H1183   1.082       .  S
C1172      H1184   1.082       .  S
C1173      C1174   1.379       .  A
C1173      H1185   1.082       .  S
C1174      H1186   1.082       .  S
C1175      C1176   1.378       .  A
C1175      H1187   1.082       .  S
C1176      H1188   1.082       .  S
C1177      C1562   1.481       .  S
C1178      C1597   1.477       .  S
C1179      C1578   1.476       .  S
C1180      C1546   1.485       .  S
N1191      N1192   1.322       .  A
N1191      N1197   1.313       .  A
N1191     Mn1220   2.196       .  S
N1192      C1199   1.353       .  A
N1193      N1195   1.312       .  A
N1193      N3122   1.315       .  A
N1193     Mn1209   2.178       .  S
N1194      C1200   1.349       .  A
N1194      N3121   1.315       .  A
N1195      N3124   1.323       .  A
N1195     Mn1220   2.197       .  S
N1196      C1200   1.354       .  A
N1196      N3123   1.323       .  A
N1197      N1198   1.314       .  A
N1197     Mn1209   2.172       .  S
N1198      C1199   1.346       .  A
C1199      C1594   1.460       .  S
C1200      C1581   1.469       .  S
N1201      N1207   1.313       .  A
N1201      N3130   1.325       .  A
N1201     Mn1231   2.230       .  S
N1202      C1210   1.359       .  A
N1202      N3129   1.325       .  A
N1203      N1204   1.312       .  A
N1203      N1205   1.313       .  A
N1203     Mn1209   2.167       .  S
N1204      C1211   1.344       .  A
N1205      N1206   1.330       .  A
N1205     Mn1231   2.245       .  S
N1206      C1211   1.365       .  A
N1207      N3136   1.315       .  A
N1207     Mn1209   2.169       .  S
N1208      C1210   1.349       .  A
N1208      N3135   1.315       .  A
Mn1209    Cl1233   2.536       .  S
C1210      C1642   1.492       .  S
C1211      C1661   1.498       .  S
N1212      N1213   1.316       .  A
N1212      N1218   1.316       .  A
N1212     Mn3148   2.181   1_455  S
N1213      C1221   1.348       .  A
N1214      N1216   1.316       .  A
N1214      N1215   1.322       .  A
N1214     Mn1232   2.213       .  S
N1215      C1222   1.356       .  A
N1216      N1217   1.319       .  A
N1216     Mn1220   2.196       .  S
N1217      C1222   1.352       .  A
N1218      N1219   1.323       .  A
N1218     Mn3160   2.217   1_455  S
N1219      C1221   1.357       .  A
Mn1220     N3140   2.181       .  S
Mn1220    Cl1233   2.546       .  S
C1221      C1498   1.473       .  S
C1222      C1533   1.486       .  S
N1223      N1224   1.324       .  A
N1223      N1229   1.319       .  A
N1223     Mn1231   2.223       .  S
N1224      C1234   1.357       .  A
N1225      N1226   1.321       .  A
N1225      N1227   1.318       .  A
N1225     Mn3160   2.217   1_455  S
N1226      C1235   1.354       .  A
N1227      N1228   1.320       .  A
N1227     Mn3159   2.206   1_455  S
N1228      C1235   1.353       .  A
N1229      N1230   1.318       .  A
N1229     Mn1232   2.206       .  S
N1230      C1234   1.350       .  A
Mn1231     N3155   2.206       .  S
Mn1231    Cl1233   2.556       .  S
Mn1232     N3146   2.217       .  S
Mn1232     N3153   2.217       .  S
Mn1232    Cl1233   2.538       .  S
C1234      C1514   1.488       .  S
C1235      C1485   1.480       .  S
N1236      C1241   1.353       .  A
N1236      C1240   1.354       .  A
N1236      H1268   1.040       .  S
N1237      C1244   1.354       .  A
N1237      C1245   1.351       .  A
N1238      C1243   1.355       .  A
N1238      C1242   1.352       .  A
N1238      H1269   1.040       .  S
N1239      C1246   1.349       .  A
N1239      C1247   1.351       .  A
C1240      C1248   1.387       .  A
C1240      C1256   1.417       .  A
C1241      C1257   1.415       .  A
C1241      C1249   1.386       .  A
C1242      C1250   1.388       .  A
C1242      C1259   1.417       .  A
C1243      C1258   1.418       .  A
C1243      C1251   1.387       .  A
C1244      C1256   1.415       .  A
C1244      C1252   1.385       .  A
C1245      C1259   1.415       .  A
C1245      C1253   1.388       .  A
C1246      C1254   1.386       .  A
C1246      C1257   1.409       .  A
C1247      C1255   1.387       .  A
C1247      C1258   1.412       .  A
C1248      C1249   1.376       .  A
C1248      H1260   1.082       .  S
C1249      H1261   1.082       .  S
C1250      C1251   1.379       .  A
C1250      H1262   1.082       .  S
C1251      H1263   1.082       .  S
C1252      C1253   1.374       .  A
C1254      C1255   1.371       .  A
C1254      H1266   1.082       .  S
C1255      H1267   1.082       .  S
C1256      C1482   1.499       .  S
C1257      C1501   1.486       .  S
C1258      C1690   1.495       .  S
C1259      C1677   1.487       .  S
N1270      C1275   1.352       .  A
N1270      C1274   1.353       .  A
N1270      H1302   1.039       .  S
N1271      C1278   1.353       .  A
N1271      C1279   1.351       .  A
N1272      C1277   1.354       .  A
N1272      C1276   1.353       .  A
N1272      H1303   1.040       .  S
N1273      C1280   1.351       .  A
N1273      C1281   1.351       .  A
C1274      C1282   1.386       .  A
C1274      C1290   1.413       .  A
C1275      C1291   1.413       .  A
C1275      C1283   1.388       .  A
C1276      C1284   1.386       .  A
C1276      C1293   1.415       .  A
C1277      C1292   1.415       .  A
C1277      C1285   1.387       .  A
C1278      C1290   1.415       .  A
C1278      C1286   1.385       .  A
C1279      C1293   1.414       .  A
C1279      C1287   1.387       .  A
C1280      C1288   1.387       .  A
C1280      C1291   1.413       .  A
C1281      C1289   1.387       .  A
C1281      C1292   1.414       .  A
C1282      C1283   1.373       .  A
C1282      H1294   1.082       .  S
C1283      H1295   1.082       .  S
C1284      C1285   1.375       .  A
C1286      C1287   1.375       .  A
C1286      H1298   1.082       .  S
C1287      H1299   1.082       .  S
C1288      C1289   1.376       .  A
C1288      H1300   1.082       .  S
C1289      H1301   1.082       .  S
C1290      C1530   1.495       .  S
C1291      C1725   1.484       .  S
C1292      C1709   1.490       .  S
C1293      C1517   1.492       .  S
N1304      C1309   1.355       .  A
N1304      C1308   1.352       .  A
N1304      H1336   1.037       .  S
N1305      C1312   1.351       .  A
N1305      C1313   1.352       .  A
N1306      C1311   1.353       .  A
N1306      C1310   1.352       .  A
N1306      H1337   1.033       .  S
N1307      C1314   1.348       .  A
N1307      C1315   1.348       .  A
C1308      C1316   1.386       .  A
C1308      C1324   1.413       .  A
C1309      C1325   1.418       .  A
C1309      C1317   1.388       .  A
C1310      C1318   1.386       .  A
C1310      C1327   1.414       .  A
C1311      C1326   1.417       .  A
C1311      C1319   1.387       .  A
C1312      C1324   1.411       .  A
C1312      C1320   1.386       .  A
C1313      C1327   1.413       .  A
C1313      C1321   1.386       .  A
C1314      C1322   1.387       .  A
C1314      C1325   1.410       .  A
C1315      C1323   1.386       .  A
C1315      C1326   1.408       .  A
C1316      C1317   1.378       .  A
C1316      H1328   1.082       .  S
C1317      H1329   1.082       .  S
C1318      C1319   1.378       .  A
C1318      H1330   1.082       .  S
C1319      H1331   1.082       .  S
C1320      C1321   1.369       .  A
C1322      C1323   1.372       .  A
C1322      H1334   1.082       .  S
C1323      H1335   1.082       .  S
C1324      C1450   1.483       .  S
C1325      C1469   1.492       .  S
C1326      C1757   1.484       .  S
C1327      C1741   1.484       .  S
N1338      C1343   1.351       .  A
N1338      C1342   1.352       .  A
N1338      H1370   1.040       .  S
N1339      C1346   1.350       .  A
N1339      C1347   1.350       .  A
N1340      C1345   1.353       .  A
N1340      C1344   1.352       .  A
N1340      H1371   1.038       .  S
N1341      C1348   1.350       .  A
N1341      C1349   1.350       .  A
C1342      C1350   1.386       .  A
C1342      C1358   1.412       .  A
C1343      C1359   1.412       .  A
C1343      C1351   1.387       .  A
C1344      C1352   1.388       .  A
C1344      C1361   1.416       .  A
C1345      C1360   1.414       .  A
C1345      C1353   1.387       .  A
C1346      C1358   1.411       .  A
C1346      C1354   1.385       .  A
C1347      C1361   1.412       .  A
C1347      C1355   1.387       .  A
C1348      C1356   1.386       .  A
C1348      C1359   1.411       .  A
C1349      C1357   1.387       .  A
C1349      C1360   1.413       .  A
C1350      C1351   1.375       .  A
C1350      H1362   1.082       .  S
C1351      H1363   1.082       .  S
C1352      C1353   1.376       .  A
C1354      C1355   1.376       .  A
C1354      H1366   1.082       .  S
C1355      H1367   1.082       .  S
C1356      C1357   1.375       .  A
C1356      H1368   1.082       .  S
C1357      H1369   1.082       .  S
C1358      C1789   1.490       .  S
C1359      C1434   1.483       .  S
C1360      C1421   1.487       .  S
C1361      C1773   1.488       .  S
N1372      N1373   1.325       .  A
N1372      N1378   1.312       .  A
N1372     Mn1401   2.218       .  S
N1373      C1380   1.360       .  A
N1374      N1376   1.313       .  A
N1374      N3303   1.313       .  A
N1374     Mn1390   2.170       .  S
N1375      C1381   1.349       .  A
N1375      N3302   1.313       .  A
N1376      N3305   1.325       .  A
N1376     Mn1401   2.218       .  S
N1377      C1381   1.358       .  A
N1377      N3304   1.325       .  A
N1378      N1379   1.311       .  A
N1378     Mn1390   2.157       .  S
N1379      C1380   1.344       .  A
C1380      C1565   1.482       .  S
C1381      C1549   1.486       .  S
N1382      N1388   1.312       .  A
N1382      N3311   1.324       .  A
N1382     Mn1412   2.208       .  S
N1383      C1391   1.357       .  A
N1383      N3310   1.324       .  A
N1384      N1385   1.316       .  A
N1384      N1386   1.313       .  A
N1384     Mn1390   2.178       .  S
N1385      C1392   1.348       .  A
N1386      N1387   1.322       .  A
N1386     Mn1412   2.200       .  S
N1387      C1392   1.354       .  A
N1388      N3317   1.314       .  A
N1388     Mn1390   2.170       .  S
N1389      C1391   1.346       .  A
N1389      N3316   1.314       .  A
Mn1390    Cl1414   2.532       .  S
C1391      C1613   1.475       .  S
C1392      C1626   1.469       .  S
N1393      N1394   1.319       .  A
N1393      N1399   1.316       .  A
N1393     Mn3329   2.199   1_455  S
N1394      C1402   1.353       .  A
N1395      N1397   1.317       .  A
N1395      N1396   1.321       .  A
N1395     Mn1413   2.212       .  S
N1396      C1403   1.354       .  A
N1397      N1398   1.319       .  A
N1397     Mn1401   2.202       .  S
N1398      C1403   1.352       .  A
N1399      N1400   1.319       .  A
N1399     Mn3341   2.207   1_455  S
N1400      C1402   1.354       .  A
Mn1401     N3321   2.199       .  S
Mn1401    Cl1414   2.549       .  S
C1402      C1466   1.485       .  S
C1403      C1437   1.472       .  S
N1404      N1405   1.317       .  A
N1404      N1410   1.316       .  A
N1404     Mn1412   2.192       .  S
N1405      C1415   1.350       .  A
N1406      N1407   1.320       .  A
N1406      N1408   1.316       .  A
N1406     Mn3341   2.210   1_455  S
N1407      C1416   1.355       .  A
N1408      N1409   1.318       .  A
N1408     Mn3340   2.187   1_455  S
N1409      C1416   1.350       .  A
N1410      N1411   1.322       .  A
N1410     Mn1413   2.213       .  S
N1411      C1415   1.356       .  A
Mn1412     N3336   2.187       .  S
Mn1412    Cl1414   2.546       .  S
Mn1413     N3327   2.207       .  S
Mn1413     N3334   2.210       .  S
Mn1413    Cl1414   2.538       .  S
C1415      C1418   1.471       .  S
C1416      C1453   1.473       .  S
C1417      C1418   1.403       .  A
C1417      H1424   1.083       .  S
C1419      C1420   1.405       .  A
C1419      C1426   1.505       .  S
C1420      C1421   1.405       .  A
C1420      H1425   1.084       .  S
C1421      C1422   1.412       .  A
C1422      C1423   1.508       .  S
C1423      H1428   1.110       .  S
C1423      H1429   1.109       .  S
C1426      H1432   1.111       .  S
C1433      C1434   1.400       .  A
C1433      C1438   1.400       .  A
C1433      H1440   1.084       .  S
C1434      C1435   1.415       .  A
C1435      C1436   1.405       .  A
C1435      C1442   1.507       .  S
C1436      C1437   1.401       .  A
C1436      H1441   1.084       .  S
C1437      C1438   1.414       .  A
C1438      C1439   1.507       .  S
C1439      H1443   1.111       .  S
C1439      H1444   1.109       .  S
C1439      H1445   1.110       .  S
C1442      H1446   1.110       .  S
C1442      H1447   1.108       .  S
C1442      H1448   1.110       .  S
C1449      C1454   1.401   1_545  A
C1449      H1456   1.084       .  S
C1450      C1451   1.414       .  A
C1451      C1452   1.402       .  A
C1451      C1458   1.507       .  S
C1452      H1457   1.085       .  S
C1453      C1454   1.415       .  A
C1454      C1455   1.507       .  S
C1455      H1459   1.111       .  S
C1455      H1460   1.110       .  S
C1455      H1461   1.108       .  S
C1458      H1462   1.108       .  S
C1458      H1463   1.110       .  S
C1458      H1464   1.111       .  S
C1465      C1466   1.406       .  A
C1465      C1470   1.403       .  A
C1465      H1472   1.085       .  S
C1466      C1467   1.419       .  A
C1467      C1468   1.402       .  A
C1467      C1474   1.508       .  S
C1468      C1469   1.404       .  A
C1468      H1473   1.085       .  S
C1469      C1470   1.413       .  A
C1470      C1471   1.507       .  S
C1471      H1475   1.110       .  S
C1471      H1476   1.108       .  S
C1471      H1477   1.110       .  S
C1474      H1478   1.107       .  S
C1474      H3407   1.110       .  S
C1474      H3408   1.111       .  S
H1479      C3402   1.110       .  S
H1480      C3402   1.111       .  S
C1481      C1482   1.405       .  A
C1482      C1483   1.420       .  A
C1483      C1484   1.407   1_565  A
C1483      C1490   1.507       .  S
C1484      H1489   1.085       .  S
C1485      C1486   1.416       .  A
C1486      C1487   1.509       .  S
C1487      H1491   1.111   1_455  S
C1487      H1492   1.108       .  S
C1487      H1493   1.110       .  S
C1490      H1494   1.107       .  S
C1490      H1495   1.110       .  S
C1490      H1496   1.111   1_565  S
C1497      C1498   1.399       .  A
C1497      C1502   1.404       .  A
C1497      H1504   1.084       .  S
C1498      C1499   1.418       .  A
C1499      C1500   1.401       .  A
C1499      C1506   1.509       .  S
C1500      C1501   1.399       .  A
C1500      H1505   1.084       .  S
C1501      C1502   1.415       .  A
C1502      C1503   1.507       .  S
C1503      H1507   1.111       .  S
C1503      H1508   1.111       .  S
C1503      H1509   1.109       .  S
C1506      H1510   1.109       .  S
C1506      H1511   1.108   1_455  S
C1506      H1512   1.111   1_455  S
C1513      C1518   1.407   1_545  A
C1513      H1520   1.084       .  S
C1514      C1515   1.422       .  A
C1515      C1522   1.509       .  S
C1516      C1517   1.400       .  A
C1516      H1521   1.084       .  S
C1517      C1518   1.412       .  A
C1518      C1519   1.507       .  S
C1519      H1523   1.111       .  S
C1519      H1524   1.108       .  S
C1519      H1525   1.111       .  S
C1522      H1526   1.107       .  S
C1522      H1527   1.109       .  S
C1522      H1528   1.111       .  S
C1529      C1530   1.404       .  A
C1529      C1534   1.405       .  A
C1529      H1536   1.084       .  S
C1530      C1531   1.415       .  A
C1531      C1532   1.404       .  A
C1531      C1538   1.507       .  S
C1532      C1533   1.405       .  A
C1532      H1537   1.085       .  S
C1533      C1534   1.418       .  A
C1534      C1535   1.508       .  S
C1535      H1539   1.111       .  S
C1535      H1540   1.110       .  S
C1535      H1541   1.108       .  S
C1538      H1542   1.110       .  S
C1538      H1543   1.107       .  S
C1538      H1544   1.110       .  S
C1545      C1546   1.404       .  A
C1545      C1550   1.409       .  A
C1545      H1552   1.084       .  S
C1546      C1547   1.412       .  A
C1547      C1548   1.393       .  A
C1547      C1554   1.510       .  S
C1548      C1549   1.406       .  A
C1548      H1553   1.084       .  S
C1549      C1550   1.418       .  A
C1550      C1551   1.506       .  S
C1551      H1555   1.111       .  S
C1551      H1556   1.109       .  S
C1551      H1557   1.111       .  S
C1554      H1558   1.110       .  S
C1554      H1559   1.108       .  S
C1554      H1560   1.111       .  S
C1561      C1562   1.398       .  A
C1561      C1566   1.394       .  A
C1561      H1568   1.085       .  S
C1562      C1563   1.409       .  A
C1563      C1564   1.405       .  A
C1563      C1570   1.505       .  S
C1564      C1565   1.407       .  A
C1564      H1569   1.083       .  S
C1565      C1566   1.423       .  A
C1566      C1567   1.512       .  S
C1567      H1571   1.111       .  S
C1567      H1572   1.110       .  S
C1567      H1573   1.108       .  S
C1570      H1574   1.110       .  S
C1570      H1575   1.108       .  S
C1570      H1576   1.111       .  S
C1577      C1578   1.402       .  A
C1577      C1582   1.403       .  A
C1577      H1584   1.084       .  S
C1578      C1579   1.408       .  A
C1579      C1580   1.398       .  A
C1579      C1586   1.507       .  S
C1580      C1581   1.403       .  A
C1580      H1585   1.085       .  S
C1581      C1582   1.411       .  A
C1582      C1583   1.506       .  S
C1583      H1587   1.111       .  S
C1583      H1588   1.110       .  S
C1583      H1589   1.110       .  S
C1586      H1590   1.110       .  S
C1586      H1591   1.110       .  S
C1586      H1592   1.111       .  S
C1593      C1594   1.399       .  A
C1593      C1598   1.401       .  A
C1593      H1600   1.084       .  S
C1594      C1595   1.411       .  A
C1595      C1596   1.398       .  A
C1595      C1602   1.508       .  S
C1596      C1597   1.400       .  A
C1596      H1601   1.084       .  S
C1597      C1598   1.413       .  A
C1598      C1599   1.507       .  S
C1599      H1603   1.111       .  S
C1599      H1604   1.109       .  S
C1599      H1605   1.110       .  S
C1602      H1606   1.108       .  S
C1602      H1607   1.110       .  S
C1602      H1608   1.111       .  S
C1609      C1610   1.399       .  A
C1609      C1614   1.400       .  A
C1609      H1616   1.084       .  S
C1610      C1611   1.412       .  A
C1611      C1612   1.404       .  A
C1612      C1613   1.402       .  A
C1613      C1614   1.418       .  A
C1614      C1615   1.508       .  S
C1615      H1619   1.111       .  S
C1615      H1620   1.107       .  S
C1615      H1621   1.110       .  S
C1618      H1622   1.109       .  S
C1618      H1623   1.110       .  S
C1618      H1624   1.111       .  S
C1625      C1626   1.400       .  A
C1625      C1630   1.401       .  A
C1625      H1632   1.084       .  S
C1626      C1627   1.415       .  A
C1627      C1628   1.401       .  A
C1627      C1634   1.508       .  S
C1628      C1629   1.400       .  A
C1628      H1633   1.084       .  S
C1629      C1630   1.413       .  A
C1630      C1631   1.507   1_565  S
C1631      H1635   1.111       .  S
C1631      H1637   1.109       .  S
C1634      H1638   1.110       .  S
C1634      H1639   1.105       .  S
C1634      H1640   1.111       .  S
C1641      C1642   1.411       .  A
C1641      C1646   1.400       .  A
C1641      H1648   1.083       .  S
C1642      C1643   1.420       .  A
C1643      C1644   1.408       .  A
C1643      C1650   1.506       .  S
C1644      C1645   1.401       .  A
C1644      H1649   1.084       .  S
C1645      C1646   1.407       .  A
C1646      C1647   1.508       .  S
C1647      H1651   1.111       .  S
C1647      H1652   1.110       .  S
C1647      H1653   1.110       .  S
C1650      H1654   1.110       .  S
C1657      C1658   1.396       .  A
C1657      C1662   1.401       .  A
C1657      H1664   1.085       .  S
C1658      C1659   1.413       .  A
C1659      C1660   1.409       .  A
C1659      C1666   1.505       .  S
C1660      C1661   1.408       .  A
C1660      H1665   1.084       .  S
C1661      C1662   1.429       .  A
C1662      C1663   1.511       .  S
C1663      H1667   1.111       .  S
C1663      H1668   1.109       .  S
C1663      H1669   1.110       .  S
C1666      H1670   1.110       .  S
C1666      H1671   1.109       .  S
C1666      H1672   1.110       .  S
C1673      C1674   1.404       .  A
C1673      H1680   1.083       .  S
C1674      C1675   1.411       .  A
C1675      C1682   1.506       .  S
C1676      C1677   1.403       .  A
C1676      H1681   1.084       .  S
C1677      C1678   1.412       .  A
C1678      C1679   1.508       .  S
C1679      H1683   1.111   1_565  S
C1679      H1684   1.110       .  S
C1679      H1685   1.109       .  S
C1682      H1686   1.109       .  S
C1682      H1687   1.111       .  S
C1689      C1690   1.404       .  A
C1689      C1694   1.404       .  A
C1689      H1696   1.084       .  S
C1690      C1691   1.414       .  A
C1691      C1692   1.404       .  A
C1691      C1698   1.507       .  S
C1692      C1693   1.406       .  A
C1692      H1697   1.085       .  S
C1693      C1694   1.418       .  A
C1694      C1695   1.508       .  S
C1695      H1699   1.111       .  S
C1695      H1700   1.106       .  S
C1695      H1701   1.110       .  S
C1698      H1702   1.110       .  S
C1698      H1703   1.107       .  S
C1698      H1704   1.110       .  S
C1705      C1706   1.399       .  A
C1705      H1712   1.084       .  S
C1707      C1708   1.403   1_545  A
C1707      C1714   1.507       .  S
C1708      C1709   1.402       .  A
C1708      H1713   1.084       .  S
C1709      C1710   1.417       .  A
C1710      C1711   1.506       .  S
C1711      H1716   1.108       .  S
C1711      H1717   1.110       .  S
C1714      H1720   1.111   1_545  S
C1721      C1722   1.401       .  A
C1721      C1726   1.405       .  A
C1721      H1728   1.084       .  S
C1722      C1723   1.414       .  A
C1723      C1724   1.400       .  A
C1723      C1730   1.506       .  S
C1724      C1725   1.399       .  A
C1724      H1729   1.084       .  S
C1725      C1726   1.413       .  A
C1726      C1727   1.506       .  S
C1727      H1731   1.111       .  S
C1727      H1732   1.110       .  S
C1727      H1733   1.110       .  S
C1730      H1734   1.107       .  S
C1730      H1735   1.109       .  S
C1730      H1736   1.111       .  S
C1737      C1738   1.401       .  A
C1737      C1742   1.400   1_565  A
C1737      H1744   1.084       .  S
C1739      C1740   1.406       .  A
C1739      C1746   1.505       .  S
C1740      C1741   1.404       .  A
C1740      H1745   1.084       .  S
C1742      C1743   1.509       .  S
C1743      H1747   1.110       .  S
C1743      H1749   1.111       .  S
C1746      H1750   1.110       .  S
C1746      H1751   1.111       .  S
C1746      H1752   1.111       .  S
C1753      C1754   1.398       .  A
C1753      C1758   1.402       .  A
C1753      H1760   1.084       .  S
C1754      C1755   1.416       .  A
C1755      C1756   1.402       .  A
C1755      C1762   1.508       .  S
C1756      C1757   1.400       .  A
C1756      H1761   1.084       .  S
C1757      C1758   1.415       .  A
C1758      C1759   1.507       .  S
C1759      H1763   1.111       .  S
C1759      H1764   1.110       .  S
C1759      H1765   1.109       .  S
C1762      H1766   1.109       .  S
C1762      H1767   1.110       .  S
C1762      H1768   1.111       .  S
C1769      C1774   1.405       .  A
C1769      H1776   1.084       .  S
C1770      C1771   1.421       .  A
C1771      C1778   1.509       .  S
C1772      C1773   1.400       .  A
C1772      H1777   1.084       .  S
C1773      C1774   1.413       .  A
C1774      C1775   1.507       .  S
C1775      H1779   1.111       .  S
C1775      H1780   1.108       .  S
C1775      H1781   1.110       .  S
C1778      H1782   1.110       .  S
C1778      H1783   1.110       .  S
C1778      H1784   1.111       .  S
C1785      C1786   1.405       .  A
C1785      C1790   1.403       .  A
C1785      H1792   1.084       .  S
C1786      C1787   1.414       .  A
C1787      C1788   1.405       .  A
C1787      C1794   1.507       .  S
C1788      C1789   1.403       .  A
C1788      H1793   1.084       .  S
C1789      C1790   1.415       .  A
C1790      C1791   1.509       .  S
C1791      H1795   1.111       .  S
C1791      H1796   1.107       .  S
C1791      H1797   1.110       .  S
C1794      H1798   1.109       .  S
C1794      H1799   1.110       .  S
C1794      H1800   1.111       .  S
C1801      C1802   1.398       .  A
C1801      C1806   1.398       .  A
C1801      H1808   1.084       .  S
C1802      C1803   1.410       .  A
C1803      C1804   1.404       .  A
C1803      C1810   1.505       .  S
C1804      C1805   1.403       .  A
C1804      H1809   1.084       .  S
C1805      C1806   1.417       .  A
C1806      C1807   1.510       .  S
C1807      H1811   1.111       .  S
C1807      H1812   1.110       .  S
C1807      H1813   1.108       .  S
C1810      H1814   1.110       .  S
C1810      H1815   1.110       .  S
C1810      H1816   1.111       .  S
C1817      C1818   1.405       .  A
C1817      C1822   1.405       .  A
C1817      H1824   1.084       .  S
C1818      C1819   1.410       .  A
C1819      C1820   1.400       .  A
C1819      C1826   1.507       .  S
C1820      C1821   1.403       .  A
C1820      H1825   1.084       .  S
C1821      C1822   1.410       .  A
C1822      C1823   1.506       .  S
C1823      H1827   1.111       .  S
C1823      H1828   1.110       .  S
C1823      H1829   1.111       .  S
C1826      H1830   1.109       .  S
C1826      H1831   1.111       .  S
C1826      H1832   1.111       .  S
C1833      C1834   1.409       .  A
C1833      C1838   1.401       .  A
C1833      H1840   1.083       .  S
C1834      C1835   1.421       .  A
C1835      C1836   1.413       .  A
C1835      C1842   1.505       .  S
C1836      C1837   1.403       .  A
C1836      H1841   1.084       .  S
C1837      C1838   1.408       .  A
C1838      C1839   1.507       .  S
C1839      H1843   1.107       .  S
C1839      H1844   1.110       .  S
C1839      H1845   1.110       .  S
C1842      H1846   1.110       .  S
C1842      H1847   1.110       .  S
C1842      H1848   1.111       .  S
C1849      C1850   1.406       .  A
C1849      C1854   1.412       .  A
C1849      H1856   1.084       .  S
C1850      C1851   1.414       .  A
C1851      C1852   1.393       .  A
C1851      C1858   1.512       .  S
C1852      C1853   1.405       .  A
C1852      H1857   1.083       .  S
C1853      C1854   1.419       .  A
C1854      C1855   1.506       .  S
C1855      H1859   1.111       .  S
C1855      H1860   1.110       .  S
C1855      H1861   1.110       .  S
C1858      H1862   1.106       .  S
C1858      H1863   1.111       .  S
C1858      H1864   1.110       .  S
C1865      C1866   1.402       .  A
C1865      C1870   1.414       .  A
C1865      H1872   1.084       .  S
C1866      C1867   1.406       .  A
C1867      C1868   1.398       .  A
C1867      C1874   1.510       .  S
C1868      C1869   1.416       .  A
C1868      H1873   1.077       .  S
C1869      C1870   1.429       .  A
C1870      C1871   1.507       .  S
C1871      H1875   1.111       .  S
C1871      H1876   1.107       .  S
C1871      H1877   1.110       .  S
C1874      H1878   1.110       .  S
C1874      H1879   1.109       .  S
C1874      H1880   1.111       .  S
C1881      C1882   1.397       .  A
C1881      C1886   1.402       .  A
C1881      H1888   1.085       .  S
C1882      C1883   1.411       .  A
C1883      C1884   1.410       .  A
C1883      C1890   1.505       .  S
C1884      C1885   1.409       .  A
C1884      H1889   1.083       .  S
C1885      C1886   1.429       .  A
C1886      C1887   1.510       .  S
C1887      H1891   1.111       .  S
C1887      H1892   1.107       .  S
C1887      H1893   1.110       .  S
C1890      H1894   1.110       .  S
C1890      H1896   1.111       .  S
C1897      C1898   1.408       .  A
C1897      C1902   1.396       .  A
C1897      H1904   1.083       .  S
C1898      C1899   1.421       .  A
C1899      C1900   1.409       .  A
C1899      C1906   1.506   1_565  S
C1900      C1901   1.400       .  A
C1900      H1905   1.084   1_565  S
C1901      C1902   1.408       .  A
C1902      C1903   1.509       .  S
C1903      H1907   1.109       .  S
C1903      H1908   1.110       .  S
C1903      H1909   1.109       .  S
C1906      H1911   1.110       .  S
C1906      H1912   1.111       .  S
C1913      C1914   1.405       .  A
C1913      C1918   1.406       .  A
C1913      H1920   1.084       .  S
C1914      C1915   1.421       .  A
C1915      C1916   1.398       .  A
C1915      C1922   1.506       .  S
C1916      C1917   1.394       .  A
C1916      H1921   1.085       .  S
C1917      C1918   1.411       .  A
C1918      C1919   1.505   1_565  S
C1919      H1923   1.111       .  S
C1919      H1924   1.111       .  S
C1922      H1926   1.110       .  S
C1922      H1927   1.109       .  S
C1922      H1928   1.110       .  S
N1929      C1934   1.359       .  A
N1929      C2897   1.355       .  A
N1929      H1961   1.037       .  S
N1930      C1938   1.356       .  A
N1931      C2900   1.352       .  A
N1931      C1935   1.350       .  A
N1931      H1962   1.045   1_545  S
N1932      C1940   1.344       .  A
C1933      N2893   1.355       .  A
C1933      C1941   1.388   1_545  A
C1933      C1949   1.422       .  A
C1934      C1950   1.423       .  A
C1934      C1942   1.387       .  A
C1935      C1943   1.389       .  A
C1935      C1952   1.415       .  A
C1936      N2895   1.352       .  A
C1936      C1951   1.397       .  A
C1936      C1944   1.380       .  A
C1937      C1949   1.418       .  A
C1937      C1945   1.386       .  A
C1938      C1952   1.419       .  A
C1938      C1946   1.385       .  A
C1939      C1947   1.390       .  A
C1939      C1950   1.408       .  A
C1940      C1948   1.383       .  A
C1940      C1951   1.397       .  A
C1941      C2906   1.371       .  A
C1941      H1953   1.082   1_565  S
C1942      C2905   1.371       .  A
C1942      H1954   1.082       .  S
C1943      C2908   1.372       .  A
C1943      H1955   1.083       .  S
C1944      C2907   1.372       .  A
C1944      H1956   1.082       .  S
C1945      H1957   1.082       .  S
C1946      H1958   1.081       .  S
C1947      H1959   1.082       .  S
C1948      H1960   1.082       .  S
C1949      C2846   1.493       .  S
C1950      C2881   1.482       .  S
C1951      C2865   1.478       .  S
C1952      C2833   1.538       .  S
N1963      C1968   1.351       .  A
N1963      C1967   1.353       .  A
N1963      H1995   1.039       .  S
N1964      C1972   1.346       .  A
N1965      C1970   1.353       .  A
N1965      C1969   1.353       .  A
N1965      H1996   1.038       .  S
N1966      C1974   1.352       .  A
C1967      C1975   1.387       .  A
C1967      C1983   1.414       .  A
C1968      C1984   1.413       .  A
C1968      C1976   1.387       .  A
C1969      C1977   1.389       .  A
C1969      C1986   1.418       .  A
C1970      C1985   1.414       .  A
C1970      C1978   1.385       .  A
C1971      C1983   1.408       .  A
C1971      C1979   1.386       .  A
C1972      C1986   1.407       .  A
C1972      C1980   1.387       .  A
C1973      C1981   1.386       .  A
C1973      C1984   1.414       .  A
C1974      C1982   1.385       .  A
C1974      C1985   1.412       .  A
C1975      C1976   1.375       .  A
C1975      H1987   1.083       .  S
C1976      H1988   1.082       .  S
C1977      C1978   1.375       .  A
C1977      H1989   1.082       .  S
C1978      H1990   1.082       .  S
C1979      H1991   1.082       .  S
C1980      H1992   1.082       .  S
C1981      H1993   1.082       .  S
C1982      H1994   1.082       .  S
C1983      C2782   1.484       .  S
C1984      C2814   1.491       .  S
C1985      C2801   1.492       .  S
C1986      C2766   1.479       .  S
N1997      N1998   1.326       .  A
N1997      N2003   1.313       .  A
N1997     Mn2026   2.212       .  S
N1998      C2005   1.358       .  A
N1999      N2001   1.313       .  A
N1999      N2000   1.317       .  A
N1999     Mn2015   2.184       .  S
N2000      C2006   1.352       .  A
N2001      N2002   1.326       .  A
N2001     Mn2026   2.226       .  S
N2002      C2006   1.360       .  A
N2003      N2004   1.314       .  A
N2003     Mn2015   2.184       .  S
N2004      C2005   1.351       .  A
C2005      C2817   1.491       .  S
C2006      C2798   1.499       .  S
N2007      N2013   1.313       .  A
N2007      N2008   1.324       .  A
N2007     Mn2037   2.215       .  S
N2008      C2016   1.358       .  A
N2009      N2010   1.313       .  A
N2009      N2011   1.313       .  A
N2009     Mn2015   2.177       .  S
N2010      C2017   1.347       .  A
N2011      N2012   1.325       .  A
N2011     Mn2037   2.212       .  S
N2012      C2017   1.358       .  A
N2013      N2014   1.314       .  A
N2013     Mn2015   2.174       .  S
N2014      C2016   1.350       .  A
Mn2015    Cl2039   2.536       .  S
C2016      C2862   1.489       .  S
C2017      C2878   1.482       .  S
N2018      N2019   1.317       .  A
N2018      N2024   1.317       .  A
N2018     Mn2026   2.192       .  S
N2019      C2027   1.351       .  A
N2020      N2022   1.317       .  A
N2020      N2021   1.321       .  A
N2020     Mn2038   2.211       .  S
N2021      C2028   1.356       .  A
N2022      N2023   1.320       .  A
N2022     Mn2026   2.204       .  S
N2023      C2028   1.353       .  A
N2024      N2025   1.320       .  A
N2024     Mn2038   2.205       .  S
N2025      C2027   1.353       .  A
Mn2026    Cl2039   2.552       .  S
C2027      C2718   1.470       .  S
C2028      C2750   1.484       .  S
N2029      N2030   1.321       .  A
N2029      N2035   1.317       .  A
N2029     Mn2037   2.205       .  S
N2030      C2040   1.354       .  A
N2031      N2032   1.321       .  A
N2031      N2033   1.317       .  A
N2031     Mn2038   2.217       .  S
N2032      C2041   1.355       .  A
N2033      N2034   1.319       .  A
N2033     Mn2037   2.193       .  S
N2034      C2041   1.351       .  A
N2035      N2036   1.318       .  A
N2035     Mn2038   2.202       .  S
N2036      C2040   1.352       .  A
Mn2037    Cl2039   2.554       .  S
Mn2038    Cl2039   2.531       .  S
C2040      C2734   1.483       .  S
C2041      C2702   1.471       .  S
N2042      N2043   1.325       .  A
N2042      N2048   1.313       .  A
N2042     Mn2071   2.205       .  S
N2043      C2050   1.356       .  A
N2044      N2046   1.313       .  A
N2044      N2045   1.314       .  A
N2044     Mn2060   2.169       .  S
N2045      C2051   1.346       .  A
N2046      N2047   1.324       .  A
N2046     Mn2071   2.208       .  S
N2047      C2051   1.356       .  A
N2048      N2049   1.315       .  A
N2048     Mn2060   2.180       .  S
N2049      C2050   1.347       .  A
C2050      C2785   1.470       .  S
C2051      C2769   1.471       .  S
N2052      N2058   1.314       .  A
N2052      N2053   1.326       .  A
N2052     Mn2082   2.220       .  S
N2053      C2061   1.357       .  A
N2054      N2055   1.314       .  A
N2054      N2056   1.313       .  A
N2054     Mn2060   2.169       .  S
N2055      C2062   1.346       .  A
N2056      N2057   1.329       .  A
N2056     Mn2082   2.240       .  S
N2057      C2062   1.364       .  A
N2058      N2059   1.317       .  A
N2058     Mn2060   2.187       .  S
N2059      C2061   1.350       .  A
Mn2060    Cl2084   2.539       .  S
C2061      C2830   1.480       .  S
C2062      C2849   1.499       .  S
N2063      N2064   1.318       .  A
N2063      N2069   1.316       .  A
N2063     Mn2071   2.193       .  S
N2064      C2072   1.352       .  A
N2065      N2067   1.316       .  A
N2065      N2066   1.322       .  A
N2065     Mn2083   2.212       .  S
N2066      C2073   1.355       .  A
N2067      N2068   1.317       .  A
N2067     Mn2071   2.196       .  S
N2068      C2073   1.351       .  A
N2069      N2070   1.321       .  A
N2069     Mn2083   2.214       .  S
N2070      C2072   1.356       .  A
Mn2071    Cl2084   2.550       .  S
C2072      C2657   1.486       .  S
C2073      C2686   1.472       .  S
N2074      N2075   1.319       .  A
N2074      N2080   1.318       .  A
N2074     Mn2082   2.197       .  S
N2075      C2085   1.351       .  A
N2076      N2077   1.319       .  A
N2076      N2078   1.317       .  A
N2076     Mn2083   2.201       .  S
N2077      C2086   1.352       .  A
N2078      N2079   1.321       .  A
N2078     Mn2082   2.215       .  S
N2079      C2086   1.355       .  A
N2080      N2081   1.322       .  A
N2080     Mn2083   2.216       .  S
N2081      C2085   1.355       .  A
Mn2082    Cl2084   2.549       .  S
Mn2083    Cl2084   2.539       .  S
C2085      C2670   1.474       .  S
C2086      C2638   1.477       .  S
N2087      C3056   1.351       .  A
N2087      C2091   1.353   1_554  A
N2087      H2119   1.040   1_565  S
N2088      C2095   1.351       .  A
N2088      C2096   1.349       .  A
N2089      C3058   1.353   1_545  A
N2089      C2093   1.352   1_554  A
N2089      H2120   1.040       .  S
N2090      C2097   1.349       .  A
N2090      C2098   1.349       .  A
C2091      C2099   1.386       .  A
C2091      C2107   1.412   1_565  A
C2092      N3051   1.351       .  A
C2092      C2108   1.413       .  A
C2092      C2100   1.387       .  A
C2093      C2101   1.387   1_545  A
C2093      C2110   1.414       .  A
C2094      N3053   1.353       .  A
C2094      C2109   1.415       .  A
C2094      C2102   1.387       .  A
C2095      C2107   1.411       .  A
C2095      C2103   1.385       .  A
C2096      C2110   1.410       .  A
C2096      C2104   1.386       .  A
C2097      C2105   1.386       .  A
C2097      C2108   1.409       .  A
C2098      C2106   1.386       .  A
C2098      C2109   1.409       .  A
C2099      C3064   1.374   1_556  A
C2099      H2111   1.082       .  S
C2100      C3063   1.374   1_554  A
C2100      H2112   1.082       .  S
C2101      C3066   1.374   1_556  A
C2101      H2113   1.082       .  S
C2102      C3065   1.374   1_554  A
C2102      H2114   1.082       .  S
C2103      C2104   1.378       .  A
C2103      H2115   1.082       .  S
C2104      H2116   1.082       .  S
C2105      C2106   1.375       .  A
C2105      H2117   1.082       .  S
C2106      H2118   1.082       .  S
C2107      C2622   1.488       .  S
C2108      C2593   1.483       .  S
C2109      C2574   1.485       .  S
C2110      C2609   1.484       .  S
N2121      C2126   1.350   1_554  A
N2121      C2125   1.349       .  A
N2121      H2153   1.041   1_554  S
N2122      C2129   1.347       .  A
N2122      C2130   1.348       .  A
N2123      C2128   1.351   1_554  A
N2123      C2127   1.350       .  A
N2123      H2154   1.040   1_554  S
N2124      C2131   1.345       .  A
N2124      C2132   1.344       .  A
C2125      C2133   1.387       .  A
C2125      C2141   1.408       .  A
C2126      C2142   1.411       .  A
C2126      C2134   1.387       .  A
C2127      C2135   1.386       .  A
C2127      C2144   1.411       .  A
C2128      C2143   1.415       .  A
C2128      C2136   1.388       .  A
C2129      C2141   1.406       .  A
C2129      C2137   1.386       .  A
C2130      C2144   1.407       .  A
C2130      C2138   1.386       .  A
C2131      C2139   1.386       .  A
C2131      C2142   1.404       .  A
C2132      C2140   1.386       .  A
C2132      C2143   1.404       .  A
C2133      C2134   1.375   1_554  A
C2133      H2145   1.083       .  S
C2134      H2146   1.082       .  S
C2135      C2136   1.376   1_554  A
C2135      H2147   1.082       .  S
C2136      H2148   1.082       .  S
C2137      C2138   1.379       .  A
C2137      H2149   1.082       .  S
C2138      H2150   1.082       .  S
C2139      C2140   1.378       .  A
C2139      H2151   1.082       .  S
C2140      H2152   1.082       .  S
C2141      C2526   1.481       .  S
C2142      C2561   1.477       .  S
C2143      C2542   1.477       .  S
C2144      C2510   1.485       .  S
N2155      N2156   1.322       .  A
N2155      N2161   1.313       .  A
N2155     Mn2184   2.196       .  S
N2156      C2163   1.353       .  A
N2157      N2159   1.312       .  A
N2157     Mn2173   2.179   1_455  S
N2158      C2164   1.349       .  A
N2159     Mn2184   2.198   1_455  S
N2160      C2164   1.354       .  A
N2161      N2162   1.315       .  A
N2161     Mn2173   2.171       .  S
N2162      C2163   1.346       .  A
C2163      C2558   1.460       .  S
C2164      C2545   1.469       .  S
N2165      N2171   1.313       .  A
N2165     Mn2195   2.231   1_455  S
N2166      C2174   1.359       .  A
N2167      N2168   1.312       .  A
N2167      N2169   1.313       .  A
N2167     Mn2173   2.167       .  S
N2168      C2175   1.344       .  A
N2169      N2170   1.330       .  A
N2169     Mn2195   2.245       .  S
N2170      C2175   1.366       .  A
N2171     Mn2173   2.168   1_455  S
N2172      C2174   1.349       .  A
Mn2173    Cl2197   2.536       .  S
C2174      C2606   1.492       .  S
C2175      C2625   1.498       .  S
N2176      N2177   1.316       .  A
N2176      N2182   1.316       .  A
N2177      C2185   1.348       .  A
N2178      N2180   1.316       .  A
N2178      N2179   1.322       .  A
N2178     Mn2196   2.213       .  S
N2179      C2186   1.356       .  A
N2180      N2181   1.319       .  A
N2180     Mn2184   2.196       .  S
N2181      C2186   1.352       .  A
N2182      N2183   1.323       .  A
N2183      C2185   1.357       .  A
Mn2184    Cl2197   2.546       .  S
C2185      C2462   1.473       .  S
C2186      C2497   1.487       .  S
N2187      N2188   1.324       .  A
N2187      N2193   1.319       .  A
N2187     Mn2195   2.224       .  S
N2188      C2198   1.357       .  A
N2189      N2190   1.321       .  A
N2189      N2191   1.318       .  A
N2190      C2199   1.354       .  A
N2191      N2192   1.320       .  A
N2192      C2199   1.353       .  A
N2193      N2194   1.319       .  A
N2193     Mn2196   2.206       .  S
N2194      C2198   1.350       .  A
Mn2195    Cl2197   2.556       .  S
Mn2196    Cl2197   2.538       .  S
C2198      C2478   1.488       .  S
C2199      C2449   1.480       .  S
N2200      C2205   1.353       .  A
N2200      C2204   1.354       .  A
N2200      H2232   1.040       .  S
N2201      C2208   1.354       .  A
N2201      C2209   1.351       .  A
N2202      C2207   1.355       .  A
N2202      C2206   1.352       .  A
N2202      H2233   1.040       .  S
N2203      C2210   1.349       .  A
N2203      C2211   1.351       .  A
C2204      C2212   1.387       .  A
C2204      C2220   1.417       .  A
C2205      C2221   1.415       .  A
C2205      C2213   1.386       .  A
C2206      C2214   1.388       .  A
C2206      C2223   1.417       .  A
C2207      C2222   1.418       .  A
C2207      C2215   1.387       .  A
C2208      C2220   1.415       .  A
C2208      C2216   1.385       .  A
C2209      C2223   1.415       .  A
C2209      C2217   1.388       .  A
C2210      C2218   1.386       .  A
C2210      C2221   1.409       .  A
C2211      C2219   1.387       .  A
C2211      C2222   1.412       .  A
C2212      C2213   1.376       .  A
C2212      H2224   1.082       .  S
C2213      H2225   1.082       .  S
C2214      C2215   1.379       .  A
C2214      H2226   1.082       .  S
C2215      H2227   1.082       .  S
C2216      C2217   1.374       .  A
C2216      H3192   1.082       .  S
C2217      H3193   1.082       .  S
C2218      C2219   1.370       .  A
C2218      H2230   1.082       .  S
C2219      H2231   1.082       .  S
C2220      C2446   1.499       .  S
C2221      C2465   1.486       .  S
C2222      C2654   1.495       .  S
C2223      C2641   1.487       .  S
H2228      C3180   1.082   1_545  S
H2229      C3181   1.082   1_545  S
N2234      C2239   1.352       .  A
N2234      C2238   1.353       .  A
N2234      H2266   1.039       .  S
N2235      C2242   1.353       .  A
N2235      C2243   1.351       .  A
N2236      C2241   1.354       .  A
N2236      C2240   1.353       .  A
N2236      H2267   1.040       .  S
N2237      C2244   1.351       .  A
N2237      C2245   1.351       .  A
C2238      C2246   1.386       .  A
C2238      C2254   1.413       .  A
C2239      C2255   1.413       .  A
C2239      C2247   1.388       .  A
C2240      C2248   1.386       .  A
C2240      C2257   1.414       .  A
C2241      C2256   1.415       .  A
C2241      C2249   1.387       .  A
C2242      C2254   1.415       .  A
C2242      C2250   1.385       .  A
C2243      C2257   1.414       .  A
C2243      C2251   1.387       .  A
C2244      C2252   1.387       .  A
C2244      C2255   1.413       .  A
C2245      C2253   1.386       .  A
C2245      C2256   1.414       .  A
C2246      C2247   1.373       .  A
C2246      H2258   1.082       .  S
C2247      H2259   1.082       .  S
C2248      C2249   1.375       .  A
C2248      H3224   1.082       .  S
C2249      H3225   1.082       .  S
C2250      C2251   1.375       .  A
C2250      H2262   1.082       .  S
C2251      H2263   1.082       .  S
C2252      C2253   1.376       .  A
C2252      H2264   1.082       .  S
C2253      H2265   1.082       .  S
C2254      C2494   1.495       .  S
C2255      C2689   1.484       .  S
C2256      C2673   1.490       .  S
C2257      C2481   1.492       .  S
H2260      C3212   1.082   1_545  S
H2261      C3213   1.082   1_545  S
N2268      C2273   1.355       .  A
N2268      C2272   1.352       .  A
N2268      H2300   1.036       .  S
N2269      C2276   1.351       .  A
N2269      C2277   1.352       .  A
N2270      C2275   1.354       .  A
N2270      C2274   1.352       .  A
N2270      H2301   1.032       .  S
N2271      C2278   1.348       .  A
N2271      C2279   1.348       .  A
C2272      C2280   1.386       .  A
C2272      C2288   1.413       .  A
C2273      C2289   1.418       .  A
C2273      C2281   1.388       .  A
C2274      C2282   1.386       .  A
C2274      C2291   1.414       .  A
C2275      C2290   1.417       .  A
C2275      C2283   1.387       .  A
C2276      C2288   1.411       .  A
C2276      C2284   1.386       .  A
C2277      C2291   1.413       .  A
C2277      C2285   1.386       .  A
C2278      C2286   1.387       .  A
C2278      C2289   1.410       .  A
C2279      C2287   1.386       .  A
C2279      C2290   1.408       .  A
C2280      C2281   1.378       .  A
C2280      H2292   1.082       .  S
C2281      H2293   1.082       .  S
C2282      C2283   1.378       .  A
C2282      H2294   1.082       .  S
C2283      H2295   1.082       .  S
C2284      C2285   1.369       .  A
C2284      H3260   1.082   1_545  S
C2285      H3261   1.082   1_545  S
C2286      C2287   1.372       .  A
C2286      H2298   1.082       .  S
C2287      H2299   1.082       .  S
C2288      C2414   1.483       .  S
C2289      C2433   1.491       .  S
C2290      C2721   1.485       .  S
C2291      C2705   1.485       .  S
H2296      C3248   1.082       .  S
H2297      C3249   1.082       .  S
N2302      C2307   1.351       .  A
N2302      C2306   1.352       .  A
N2302      H2334   1.040       .  S
N2303      C2310   1.351       .  A
N2303      C2311   1.350       .  A
N2304      C2309   1.353       .  A
N2304      C2308   1.352       .  A
N2304      H2335   1.038       .  S
N2305      C2312   1.350       .  A
N2305      C2313   1.350       .  A
C2306      C2314   1.386       .  A
C2306      C2322   1.412       .  A
C2307      C2323   1.412       .  A
C2307      C2315   1.387       .  A
C2308      C2316   1.388       .  A
C2308      C2325   1.416       .  A
C2309      C2324   1.414       .  A
C2309      C2317   1.387       .  A
C2310      C2322   1.411       .  A
C2310      C2318   1.385       .  A
C2311      C2325   1.412       .  A
C2311      C2319   1.387       .  A
C2312      C2320   1.386       .  A
C2312      C2323   1.411       .  A
C2313      C2321   1.387       .  A
C2313      C2324   1.413       .  A
C2314      C2315   1.375       .  A
C2314      H2326   1.082       .  S
C2315      H2327   1.082       .  S
C2316      C2317   1.376       .  A
C2316      H3292   1.082   1_545  S
C2317      H3293   1.082   1_545  S
C2318      C2319   1.376       .  A
C2318      H2330   1.082       .  S
C2319      H2331   1.082       .  S
C2320      C2321   1.375       .  A
C2320      H2332   1.082       .  S
C2321      H2333   1.082       .  S
C2322      C2753   1.491       .  S
C2323      C2398   1.483       .  S
C2324      C2385   1.487       .  S
C2325      C2737   1.488       .  S
H2328      C3280   1.082       .  S
H2329      C3281   1.082       .  S
N2336      N2337   1.325       .  A
N2336      N2342   1.312       .  A
N2336     Mn2365   2.218       .  S
N2337      C2344   1.360       .  A
N2338      N2340   1.313       .  A
N2338     Mn2354   2.170   1_455  S
N2339      C2345   1.349       .  A
N2340     Mn2365   2.218   1_455  S
N2341      C2345   1.358       .  A
N2342      N2343   1.311       .  A
N2342     Mn2354   2.156       .  S
N2343      C2344   1.344       .  A
C2344      C2529   1.481       .  S
C2345      C2513   1.485       .  S
N2346      N2352   1.312       .  A
N2346     Mn2376   2.208   1_455  S
N2347      C2355   1.357       .  A
N2348      N2349   1.316       .  A
N2348      N2350   1.313       .  A
N2348     Mn2354   2.179       .  S
N2349      C2356   1.348       .  A
N2350      N2351   1.322       .  A
N2350     Mn2376   2.201       .  S
N2351      C2356   1.354       .  A
N2352     Mn2354   2.170   1_455  S
N2353      C2355   1.346       .  A
Mn2354    Cl2378   2.532       .  S
C2355      C2577   1.475       .  S
C2356      C2590   1.469       .  S
N2357      N2358   1.319       .  A
N2357      N2363   1.316       .  A
N2358      C2366   1.353       .  A
N2359      N2361   1.317       .  A
N2359      N2360   1.321       .  A
N2359     Mn2377   2.211       .  S
N2360      C2367   1.354       .  A
N2361      N2362   1.319       .  A
N2361     Mn2365   2.202       .  S
N2362      C2367   1.352       .  A
N2363      N2364   1.319       .  A
N2364      C2366   1.354       .  A
Mn2365    Cl2378   2.549       .  S
C2366      C2430   1.484       .  S
C2367      C2401   1.472       .  S
N2368      N2369   1.317       .  A
N2368      N2374   1.316       .  A
N2368     Mn2376   2.192       .  S
N2369      C2379   1.350       .  A
N2370      N2371   1.320       .  A
N2370      N2372   1.316       .  A
N2371      C2380   1.355       .  A
N2372      N2373   1.318       .  A
N2373      C2380   1.350       .  A
N2374      N2375   1.322       .  A
N2374     Mn2377   2.212       .  S
N2375      C2379   1.356       .  A
Mn2376    Cl2378   2.546       .  S
Mn2377    Cl2378   2.538       .  S
C2379      C2382   1.471       .  S
C2380      C2417   1.473       .  S
C2381      C2382   1.403       .  A
C2381      C3350   1.401       .  A
C2381      H2388   1.082       .  S
C2382      C3347   1.408       .  A
C2383      C3346   1.408       .  A
C2383      C2384   1.405   1_565  A
C2383      C2390   1.505       .  S
C2384      C2385   1.405       .  A
C2384      H2389   1.084       .  S
C2385      C2386   1.413       .  A
C2386      C3345   1.401   1_545  A
C2386      C2387   1.508       .  S
C2387      H3355   1.111       .  S
C2387      H2392   1.110       .  S
C2387      H2393   1.109       .  S
C2390      H3358   1.110       .  S
C2390      H3359   1.111       .  S
C2390      H2396   1.111       .  S
H2391      C3351   1.111       .  S
H2394      C3354   1.110       .  S
H2395      C3354   1.111       .  S
C2397      C2398   1.400       .  A
C2397      C2402   1.400       .  A
C2397      H2404   1.084       .  S
C2398      C2399   1.415       .  A
C2399      C2400   1.404       .  A
C2399      C2406   1.507       .  S
C2400      C2401   1.401       .  A
C2400      H2405   1.084       .  S
C2401      C2402   1.414       .  A
C2402      C2403   1.507       .  S
C2403      H2407   1.111       .  S
C2403      H2408   1.109       .  S
C2403      H2409   1.110       .  S
C2406      H2410   1.110       .  S
C2406      H2411   1.108       .  S
C2406      H2412   1.110       .  S
C2413      C3378   1.401       .  A
C2413      C2418   1.401       .  A
C2413      H2420   1.084       .  S
C2414      C3377   1.401       .  A
C2414      C2415   1.414       .  A
C2415      C2416   1.402   1_545  A
C2415      C2422   1.507       .  S
C2416      C3381   1.401       .  A
C2416      H2421   1.085       .  S
C2417      C3380   1.401       .  A
C2417      C2418   1.415       .  A
C2418      C2419   1.507       .  S
C2419      H2423   1.111       .  S
C2419      H2424   1.110       .  S
C2419      H2425   1.108       .  S
C2422      H2426   1.108       .  S
C2422      H2427   1.110       .  S
C2422      H2428   1.111       .  S
C2429      C2430   1.406       .  A
C2429      C2434   1.403       .  A
C2429      H2436   1.085       .  S
C2430      C2431   1.419       .  A
C2431      C2432   1.401       .  A
C2431      C2438   1.508       .  S
C2432      C2433   1.404       .  A
C2432      H2437   1.085       .  S
C2433      C2434   1.413       .  A
C2434      C2435   1.507       .  S
C2435      H2439   1.110       .  S
C2435      H2440   1.108       .  S
C2435      H2441   1.110       .  S
C2438      H2442   1.107       .  S
C2445      C2446   1.405       .  A
C2445      C3414   1.404       .  A
C2445      H3416   1.084       .  S
C2446      C2447   1.420       .  A
C2447      C2448   1.407       .  A
C2447      C2454   1.508       .  S
C2448      C3413   1.401       .  A
C2448      H2453   1.084       .  S
C2449      C3412   1.401       .  A
C2449      C2450   1.416   1_545  A
C2450      C3409   1.404       .  A
C2450      C2451   1.509       .  S
C2451      H2455   1.111       .  S
C2451      H2456   1.108   1_565  S
C2451      H2457   1.110       .  S
H2452      C3409   1.084       .  S
C2454      H2458   1.107       .  S
C2454      H2459   1.110       .  S
C2454      H2460   1.110       .  S
C2461      C2462   1.399       .  A
C2461      C2466   1.404       .  A
C2461      H2468   1.084       .  S
C2462      C2463   1.418       .  A
C2463      C2464   1.401       .  A
C2463      C2470   1.509       .  S
C2464      C2465   1.399       .  A
C2464      H2469   1.084       .  S
C2465      C2466   1.415       .  A
C2466      C2467   1.507       .  S
C2467      H2471   1.111       .  S
C2467      H2472   1.110       .  S
C2467      H2473   1.109       .  S
C2470      H2474   1.109       .  S
C2470      H2475   1.108       .  S
C2470      H2476   1.111       .  S
C2477      C3442   1.404       .  A
C2477      C2482   1.407       .  A
C2477      H2484   1.084       .  S
C2478      C3441   1.404       .  A
C2478      C2479   1.422       .  A
C2479      C3444   1.404   1_545  A
C2479      C2486   1.509       .  S
C2480      C3443   1.404       .  A
C2480      C2481   1.400       .  A
C2480      H2485   1.084       .  S
C2481      C2482   1.412       .  A
C2482      C2483   1.507       .  S
C2483      H2487   1.110       .  S
C2483      H2488   1.108       .  S
C2483      H2489   1.111       .  S
C2486      H2490   1.107       .  S
C2486      H2491   1.109       .  S
C2486      H2492   1.111       .  S
C2493      C2494   1.404       .  A
C2493      C2498   1.405       .  A
C2493      H2500   1.084       .  S
C2494      C2495   1.415       .  A
C2495      C2496   1.404       .  A
C2495      C2502   1.507       .  S
C2496      C2497   1.406       .  A
C2496      H2501   1.085       .  S
C2497      C2498   1.418       .  A
C2498      C2499   1.508       .  S
C2499      H2503   1.111       .  S
C2499      H2504   1.110       .  S
C2499      H2505   1.108       .  S
C2502      H2506   1.110       .  S
C2502      H2507   1.107       .  S
C2502      H2508   1.110       .  S
C2509      C2510   1.404       .  A
C2509      C2514   1.409       .  A
C2509      H2516   1.084       .  S
C2510      C2511   1.412       .  A
C2511      C2512   1.393       .  A
C2511      C2518   1.510       .  S
C2512      C2513   1.405       .  A
C2512      H2517   1.084       .  S
C2513      C2514   1.418       .  A
C2514      C2515   1.506       .  S
C2515      H2519   1.111       .  S
C2515      H2520   1.109       .  S
C2515      H2521   1.111       .  S
C2518      H2522   1.110       .  S
C2518      H2523   1.108       .  S
C2518      H2524   1.111       .  S
C2525      C2526   1.398       .  A
C2525      C2530   1.394       .  A
C2525      H2532   1.085       .  S
C2526      C2527   1.409       .  A
C2527      C2528   1.405       .  A
C2527      C2534   1.505       .  S
C2528      C2529   1.407       .  A
C2528      H2533   1.083       .  S
C2529      C2530   1.423       .  A
C2530      C2531   1.512       .  S
C2531      H2535   1.111       .  S
C2531      H2536   1.110       .  S
C2531      H2537   1.108       .  S
C2534      H2538   1.110       .  S
C2534      H2539   1.108       .  S
C2534      H2540   1.111       .  S
C2541      C2542   1.402       .  A
C2541      C2546   1.403       .  A
C2541      H2548   1.084       .  S
C2542      C2543   1.408       .  A
C2543      C2544   1.398       .  A
C2543      C2550   1.507       .  S
C2544      C2545   1.403       .  A
C2544      H2549   1.085       .  S
C2545      C2546   1.411       .  A
C2546      C2547   1.506       .  S
C2547      H2551   1.111       .  S
C2547      H2552   1.110       .  S
C2547      H2553   1.110       .  S
C2550      H2554   1.110       .  S
C2550      H2555   1.110       .  S
C2550      H2556   1.111       .  S
C2557      C2558   1.399       .  A
C2557      C2562   1.401       .  A
C2557      H2564   1.084       .  S
C2558      C2559   1.411       .  A
C2559      C2560   1.398       .  A
C2559      C2566   1.508       .  S
C2560      C2561   1.400       .  A
C2560      H2565   1.084       .  S
C2561      C2562   1.413       .  A
C2562      C2563   1.507       .  S
C2563      H2567   1.111       .  S
C2563      H2568   1.109       .  S
C2563      H2569   1.110       .  S
C2566      H2570   1.108       .  S
C2566      H2571   1.110       .  S
C2566      H2572   1.111       .  S
C2573      C2574   1.399       .  A
C2573      C2578   1.400       .  A
C2573      H2580   1.084       .  S
C2574      C2575   1.413       .  A
C2575      C2576   1.404       .  A
C2575      C3546   1.506       .  S
C2576      C2577   1.402       .  A
C2576      H3545   1.084       .  S
C2577      C2578   1.418       .  A
C2578      C2579   1.508       .  S
C2579      H2583   1.111       .  S
C2579      H2584   1.107       .  S
C2579      H2585   1.110       .  S
H2581      C3540   1.084   1_545  S
C2582      C3539   1.506   1_545  S
C2582      H2586   1.110       .  S
C2582      H2587   1.110       .  S
C2582      H2588   1.111       .  S
C2589      C2590   1.400       .  A
C2589      C2594   1.402       .  A
C2589      H2596   1.084       .  S
C2590      C2591   1.414       .  A
C2591      C2592   1.401       .  A
C2591      C2598   1.508       .  S
C2592      C2593   1.400       .  A
C2592      H2597   1.084       .  S
C2593      C2594   1.414       .  A
C2594      C2595   1.507       .  S
C2595      H2599   1.111       .  S
C2595      H3564   1.110       .  S
C2595      H2601   1.109       .  S
C2598      H2602   1.110       .  S
C2598      H2603   1.105       .  S
C2598      H2604   1.111       .  S
H2600      C3559   1.110       .  S
C2605      C2606   1.411       .  A
C2605      C2610   1.400       .  A
C2605      H2612   1.083       .  S
C2606      C2607   1.420       .  A
C2607      C2608   1.408       .  A
C2607      C2614   1.506       .  S
C2608      C2609   1.401       .  A
C2608      H2613   1.084   1_545  S
C2609      C2610   1.407       .  A
C2610      C2611   1.508       .  S
C2611      H2615   1.111       .  S
C2611      H2616   1.110       .  S
C2611      H2617   1.110       .  S
C2614      H2618   1.110       .  S
C2614      H3583   1.110   1_545  S
C2614      H3584   1.111   1_545  S
H2619      C3578   1.110       .  S
H2620      C3578   1.111       .  S
C2621      C2622   1.395       .  A
C2621      C2626   1.401       .  A
C2621      H2628   1.085       .  S
C2622      C2623   1.413       .  A
C2623      C2624   1.409       .  A
C2623      C2630   1.505   1_545  S
C2624      C2625   1.408       .  A
C2624      H2629   1.084       .  S
C2625      C2626   1.429       .  A
C2626      C2627   1.511       .  S
C2627      H2631   1.111       .  S
C2627      H2632   1.109       .  S
C2627      H2633   1.110       .  S
C2630      H2634   1.110       .  S
C2630      H2635   1.109       .  S
C2630      H2636   1.110       .  S
C2637      C2638   1.404       .  A
C2637      C3606   1.402   1_545  A
C2637      H2644   1.083       .  S
C2638      C2639   1.411   1_545  A
C2639      C3604   1.405       .  A
C2639      C2646   1.506   1_565  S
C2640      C3603   1.405       .  A
C2640      C2641   1.403       .  A
C2640      H2645   1.084       .  S
C2641      C2642   1.412       .  A
C2642      C3601   1.402       .  A
C2642      C2643   1.508       .  S
C2643      H2647   1.111       .  S
C2643      H2648   1.110       .  S
C2643      H2649   1.109       .  S
C2646      H2650   1.109   1_545  S
C2646      H2651   1.111       .  S
C2646      H3616   1.111   1_545  S
H2652      C3610   1.111       .  S
C2653      C2654   1.404       .  A
C2653      C2658   1.404       .  A
C2653      H2660   1.084       .  S
C2654      C2655   1.414       .  A
C2655      C2656   1.404       .  A
C2655      C2662   1.507       .  S
C2656      C2657   1.406       .  A
C2656      H2661   1.085       .  S
C2657      C2658   1.418       .  A
C2658      C2659   1.508       .  S
C2659      H2663   1.111       .  S
C2659      H2664   1.106       .  S
C2659      H2665   1.110       .  S
C2662      H2666   1.110       .  S
C2662      H2667   1.107       .  S
C2662      H2668   1.110       .  S
C2669      C2670   1.399       .  A
C2669      C3638   1.405   1_545  A
C2669      H2676   1.084       .  S
C2670      C3635   1.414       .  A
C2671      C3634   1.414       .  A
C2671      C2672   1.403       .  A
C2671      C2678   1.507       .  S
C2672      C2673   1.402       .  A
C2672      H2677   1.084       .  S
C2673      C2674   1.417       .  A
C2674      C3633   1.405       .  A
C2674      C2675   1.506       .  S
C2675      H3643   1.110       .  S
C2675      H2680   1.108       .  S
C2675      H2681   1.110       .  S
C2678      H3646   1.109       .  S
C2678      H3647   1.109       .  S
C2678      H2684   1.111       .  S
H2679      C3639   1.111   1_545  S
H2682      C3642   1.109   1_565  S
H2683      C3642   1.109       .  S
C2685      C2686   1.401       .  A
C2685      C2690   1.405       .  A
C2685      H2692   1.084       .  S
C2686      C2687   1.414       .  A
C2687      C2688   1.400       .  A
C2687      C2694   1.506       .  S
C2688      C2689   1.399       .  A
C2688      H2693   1.084       .  S
C2689      C2690   1.413       .  A
C2690      C2691   1.506       .  S
C2691      H2695   1.111       .  S
C2691      H2696   1.110       .  S
C2691      H2697   1.110       .  S
C2694      H2698   1.107       .  S
C2694      H2699   1.109       .  S
C2694      H2700   1.111       .  S
C2701      C2702   1.401       .  A
C2701      C2706   1.400       .  A
C2701      H2708   1.084       .  S
C2702      C3667   1.409       .  A
C2703      C3666   1.409       .  A
C2703      C2704   1.406   1_565  A
C2703      C2710   1.505       .  S
C2704      C2705   1.405       .  A
C2704      H2709   1.084       .  S
C2705      C3670   1.414       .  A
C2706      C3669   1.414       .  A
C2706      C2707   1.509       .  S
C2707      H2711   1.110       .  S
C2707      H3676   1.108       .  S
C2707      H2713   1.111       .  S
C2710      H2714   1.110       .  S
C2710      H2715   1.111       .  S
C2710      H2716   1.111       .  S
H2712      C3671   1.108       .  S
C2717      C2718   1.398       .  A
C2717      C2722   1.403       .  A
C2717      H2724   1.084       .  S
C2718      C2719   1.416       .  A
C2719      C2720   1.402       .  A
C2719      C2726   1.508       .  S
C2720      C2721   1.400       .  A
C2720      H2725   1.084       .  S
C2721      C2722   1.415       .  A
C2722      C2723   1.507       .  S
C2723      H2727   1.111       .  S
C2723      H2728   1.110       .  S
C2723      H2729   1.109       .  S
C2726      H2730   1.109       .  S
C2726      H2731   1.110       .  S
C2726      H2732   1.111       .  S
C2733      C3698   1.404   1_545  A
C2733      C2738   1.405       .  A
C2733      H2740   1.084       .  S
C2734      C3697   1.404       .  A
C2734      C2735   1.421       .  A
C2735      C3700   1.401       .  A
C2735      C2742   1.509       .  S
C2736      C3699   1.401   1_545  A
C2736      C2737   1.400       .  A
C2736      H2741   1.084       .  S
C2737      C2738   1.413       .  A
C2738      C2739   1.507       .  S
C2739      H2743   1.111       .  S
C2739      H2744   1.108       .  S
C2739      H2745   1.110       .  S
C2742      H2746   1.110       .  S
C2742      H2747   1.110       .  S
C2742      H2748   1.111       .  S
C2749      C2750   1.405       .  A
C2749      C2754   1.403       .  A
C2749      H2756   1.084       .  S
C2750      C2751   1.414       .  A
C2751      C2752   1.405       .  A
C2751      C2758   1.507       .  S
C2752      C2753   1.404       .  A
C2752      H2757   1.084       .  S
C2753      C2754   1.415       .  A
C2754      C2755   1.509       .  S
C2755      H2759   1.111       .  S
C2755      H2760   1.107       .  S
C2755      H2761   1.110       .  S
C2758      H2762   1.109       .  S
C2758      H2763   1.110       .  S
C2758      H2764   1.111       .  S
C2765      C2766   1.398       .  A
C2765      C2770   1.398       .  A
C2765      H2772   1.084       .  S
C2766      C2767   1.410       .  A
C2767      C2768   1.404       .  A
C2767      C2774   1.505       .  S
C2768      C2769   1.403       .  A
C2768      H2773   1.084       .  S
C2769      C2770   1.417       .  A
C2770      C2771   1.510       .  S
C2771      H2775   1.111       .  S
C2771      H2776   1.110       .  S
C2771      H2777   1.108       .  S
C2774      H2778   1.110       .  S
C2774      H2779   1.110       .  S
C2774      H2780   1.111       .  S
C2781      C2782   1.405       .  A
C2781      C2786   1.405       .  A
C2781      H2788   1.084       .  S
C2782      C2783   1.410       .  A
C2783      C2784   1.400       .  A
C2783      C2790   1.507       .  S
C2784      C2785   1.403       .  A
C2784      H2789   1.084       .  S
C2785      C2786   1.410       .  A
C2786      C2787   1.506       .  S
C2787      H2791   1.111       .  S
C2787      H2792   1.110       .  S
C2787      H2793   1.111       .  S
C2790      H2794   1.109       .  S
C2790      H2795   1.111       .  S
C2790      H2796   1.111       .  S
C2797      C2798   1.409       .  A
C2797      C2802   1.401       .  A
C2797      H2804   1.084       .  S
C2798      C2799   1.421       .  A
C2799      C2800   1.413       .  A
C2799      C2806   1.505       .  S
C2800      C2801   1.403       .  A
C2800      H2805   1.084       .  S
C2801      C2802   1.408       .  A
C2802      C2803   1.507       .  S
C2803      H2807   1.107       .  S
C2803      H2808   1.110       .  S
C2803      H2809   1.110       .  S
C2806      H2810   1.110       .  S
C2806      H2811   1.110       .  S
C2806      H2812   1.111       .  S
C2813      C2814   1.406       .  A
C2813      C2818   1.412       .  A
C2813      H2820   1.084       .  S
C2814      C2815   1.414       .  A
C2815      C2816   1.393       .  A
C2815      C2822   1.512       .  S
C2816      C2817   1.405       .  A
C2816      H2821   1.083       .  S
C2817      C2818   1.419       .  A
C2818      C2819   1.506       .  S
C2819      H2823   1.111       .  S
C2819      H2824   1.110       .  S
C2819      H2825   1.110       .  S
C2822      H2826   1.106       .  S
C2822      H2827   1.111       .  S
C2822      H2828   1.110       .  S
C2829      C2830   1.402       .  A
C2829      C2834   1.414       .  A
C2829      H2836   1.084       .  S
C2830      C2831   1.406       .  A
C2831      C2832   1.399       .  A
C2831      C2838   1.510       .  S
C2832      C2833   1.417       .  A
C2832      H2837   1.077       .  S
C2833      C2834   1.429       .  A
C2834      C2835   1.507       .  S
C2835      H2839   1.111   1_545  S
C2835      H2840   1.107   1_545  S
C2835      H2841   1.110       .  S
C2838      H2842   1.110       .  S
C2838      H2843   1.109       .  S
C2838      H2844   1.111       .  S
C2845      C2846   1.397       .  A
C2845      C2850   1.402       .  A
C2845      H2852   1.085       .  S
C2846      C2847   1.411       .  A
C2847      C2848   1.410       .  A
C2847      C2854   1.505   1_545  S
C2848      C2849   1.408       .  A
C2848      H2853   1.083       .  S
C2849      C2850   1.428       .  A
C2850      C2851   1.510       .  S
C2851      H2855   1.111       .  S
C2851      H2856   1.107       .  S
C2851      H2857   1.110       .  S
C2854      H2858   1.110       .  S
C2854      H3823   1.110       .  S
C2854      H2860   1.111       .  S
H2859      C3818   1.110       .  S
C2861      C2862   1.408       .  A
C2861      C2866   1.396       .  A
C2861      H2868   1.083       .  S
C2862      C2863   1.421       .  A
C2863      C2864   1.409       .  A
C2863      C2870   1.506       .  S
C2864      C2865   1.400       .  A
C2864      H2869   1.084       .  S
C2865      C2866   1.408       .  A
C2866      C2867   1.509       .  S
C2867      H2871   1.109       .  S
C2867      H2872   1.110       .  S
C2867      H2873   1.109       .  S
C2870      H3838   1.110       .  S
C2870      H2875   1.110       .  S
C2870      H2876   1.111       .  S
H2874      C3834   1.110   1_565  S
C2877      C2878   1.405       .  A
C2877      C2882   1.406       .  A
C2877      H2884   1.084       .  S
C2878      C2879   1.421       .  A
C2879      C2880   1.398       .  A
C2879      C2886   1.506       .  S
C2880      C2881   1.394       .  A
C2880      H2885   1.085       .  S
C2881      C2882   1.411       .  A
C2882      C2883   1.505       .  S
C2883      H2887   1.111       .  S
C2883      H2888   1.111       .  S
C2883      H3853   1.110       .  S
C2886      H2890   1.110       .  S
C2886      H2891   1.109       .  S
C2886      H2892   1.110       .  S
H2889      C3847   1.110       .  S
N2893      C2898   1.359   1_545  A
N2893      H2925   1.037       .  S
N2894      C2902   1.356       .  A
N2895      C2899   1.350       .  A
N2895      H2926   1.045       .  S
N2896      C2904   1.344       .  A
C2897      C2905   1.388       .  A
C2897      C2913   1.422       .  A
C2898      C2914   1.423       .  A
C2898      C2906   1.387       .  A
C2899      C2907   1.389       .  A
C2899      C2916   1.415       .  A
C2900      C2915   1.397   1_545  A
C2900      C2908   1.380       .  A
C2901      C2913   1.418       .  A
C2901      C2909   1.386       .  A
C2902      C2916   1.419       .  A
C2902      C2910   1.385       .  A
C2903      C2911   1.390       .  A
C2903      C2914   1.408       .  A
C2904      C2912   1.383       .  A
C2904      C2915   1.397       .  A
C2905      H2917   1.082       .  S
C2906      H2918   1.082       .  S
C2907      H2919   1.083       .  S
C2908      H2920   1.082       .  S
C2909      H2921   1.082       .  S
C2910      H2922   1.081       .  S
C2911      H2923   1.082       .  S
C2912      H2924   1.082       .  S
C2913      C3810   1.492       .  S
C2914      C3845   1.483       .  S
C2915      C3829   1.478       .  S
C2916      C3797   1.538       .  S
N2927      C2932   1.351       .  A
N2927      C2931   1.353       .  A
N2927      H2959   1.039       .  S
N2928      C2936   1.346       .  A
N2929      C2934   1.353       .  A
N2929      C2933   1.353       .  A
N2929      H2960   1.038       .  S
N2930      C2938   1.352       .  A
C2931      C2939   1.387       .  A
C2931      C2947   1.414       .  A
C2932      C2948   1.413       .  A
C2932      C2940   1.387       .  A
C2933      C2941   1.389       .  A
C2933      C2950   1.418       .  A
C2934      C2949   1.414       .  A
C2934      C2942   1.386       .  A
C2935      C2947   1.408       .  A
C2935      C2943   1.386       .  A
C2936      C2950   1.408       .  A
C2936      C2944   1.387       .  A
C2937      C2945   1.386       .  A
C2937      C2948   1.414       .  A
C2938      C2946   1.385       .  A
C2938      C2949   1.412       .  A
C2939      C2940   1.375       .  A
C2939      H2951   1.083       .  S
C2940      H2952   1.082       .  S
C2941      C2942   1.375       .  A
C2941      H2953   1.082       .  S
C2942      H2954   1.082       .  S
C2943      H2955   1.082       .  S
C2944      H2956   1.082       .  S
C2945      H2957   1.082       .  S
C2946      H2958   1.082       .  S
C2947      C3746   1.484       .  S
C2948      C3778   1.491       .  S
C2949      C3765   1.492       .  S
C2950      C3730   1.479       .  S
N2961      N2962   1.326       .  A
N2961      N2967   1.313       .  A
N2961     Mn2990   2.213       .  S
N2962      C2969   1.358       .  A
N2963      N2965   1.313       .  A
N2963      N2964   1.317       .  A
N2963     Mn2979   2.184       .  S
N2964      C2970   1.352       .  A
N2965      N2966   1.326       .  A
N2965     Mn2990   2.226       .  S
N2966      C2970   1.360       .  A
N2967      N2968   1.314       .  A
N2967     Mn2979   2.184       .  S
N2968      C2969   1.351       .  A
C2969      C3781   1.491       .  S
C2970      C3762   1.499       .  S
N2971      N2977   1.313       .  A
N2971      N2972   1.324       .  A
N2971     Mn3001   2.214       .  S
N2972      C2980   1.358       .  A
N2973      N2974   1.313       .  A
N2973      N2975   1.313       .  A
N2973     Mn2979   2.176       .  S
N2974      C2981   1.347       .  A
N2975      N2976   1.325       .  A
N2975     Mn3001   2.212       .  S
N2976      C2981   1.358       .  A
N2977      N2978   1.314       .  A
N2977     Mn2979   2.174       .  S
N2978      C2980   1.350       .  A
Mn2979    Cl3003   2.536       .  S
C2980      C3826   1.489       .  S
C2981      C3842   1.482       .  S
N2982      N2983   1.317       .  A
N2982      N2988   1.317       .  A
N2982     Mn2990   2.192       .  S
N2983      C2991   1.350       .  A
N2984      N2986   1.317       .  A
N2984      N2985   1.321       .  A
N2984     Mn3002   2.212       .  S
N2985      C2992   1.355       .  A
N2986      N2987   1.320       .  A
N2986     Mn2990   2.204       .  S
N2987      C2992   1.353       .  A
N2988      N2989   1.320       .  A
N2988     Mn3002   2.205       .  S
N2989      C2991   1.353       .  A
Mn2990    Cl3003   2.552       .  S
C2991      C3682   1.470       .  S
C2992      C3714   1.484       .  S
N2993      N2994   1.321       .  A
N2993      N2999   1.317       .  A
N2993     Mn3001   2.204       .  S
N2994      C3004   1.354       .  A
N2995      N2996   1.321       .  A
N2995      N2997   1.316       .  A
N2995     Mn3002   2.217       .  S
N2996      C3005   1.355       .  A
N2997      N2998   1.319       .  A
N2997     Mn3001   2.193       .  S
N2998      C3005   1.351       .  A
N2999      N3000   1.318       .  A
N2999     Mn3002   2.203       .  S
N3000      C3004   1.352       .  A
Mn3001    Cl3003   2.555       .  S
Mn3002    Cl3003   2.531       .  S
C3004      C3698   1.483       .  S
C3005      C3666   1.471       .  S
N3006      N3007   1.325       .  A
N3006      N3012   1.313       .  A
N3006     Mn3035   2.206       .  S
N3007      C3014   1.356       .  A
N3008      N3010   1.313       .  A
N3008      N3009   1.314       .  A
N3008     Mn3024   2.169       .  S
N3009      C3015   1.346       .  A
N3010      N3011   1.324       .  A
N3010     Mn3035   2.208       .  S
N3011      C3015   1.356       .  A
N3012      N3013   1.315       .  A
N3012     Mn3024   2.180       .  S
N3013      C3014   1.347       .  A
C3014      C3749   1.471       .  S
C3015      C3733   1.471       .  S
N3016      N3022   1.314       .  A
N3016      N3017   1.326       .  A
N3016     Mn3046   2.219       .  S
N3017      C3025   1.357       .  A
N3018      N3019   1.314       .  A
N3018      N3020   1.313       .  A
N3018     Mn3024   2.169       .  S
N3019      C3026   1.346       .  A
N3020      N3021   1.329       .  A
N3020     Mn3046   2.240       .  S
N3021      C3026   1.364       .  A
N3022      N3023   1.317       .  A
N3022     Mn3024   2.187       .  S
N3023      C3025   1.350       .  A
Mn3024    Cl3048   2.539       .  S
C3025      C3794   1.480       .  S
C3026      C3813   1.499       .  S
N3027      N3028   1.318       .  A
N3027      N3033   1.316       .  A
N3027     Mn3035   2.193       .  S
N3028      C3036   1.352       .  A
N3029      N3031   1.316       .  A
N3029      N3030   1.322       .  A
N3029     Mn3047   2.212       .  S
N3030      C3037   1.355       .  A
N3031      N3032   1.317       .  A
N3031     Mn3035   2.197       .  S
N3032      C3037   1.351       .  A
N3033      N3034   1.321       .  A
N3033     Mn3047   2.215       .  S
N3034      C3036   1.356       .  A
Mn3035    Cl3048   2.550       .  S
C3036      C3621   1.486       .  S
C3037      C3650   1.472       .  S
N3038      N3039   1.319       .  A
N3038      N3044   1.318       .  A
N3038     Mn3046   2.197       .  S
N3039      C3049   1.351       .  A
N3040      N3041   1.319       .  A
N3040      N3042   1.317       .  A
N3040     Mn3047   2.201       .  S
N3041      C3050   1.353       .  A
N3042      N3043   1.321       .  A
N3042     Mn3046   2.215       .  S
N3043      C3050   1.355       .  A
N3044      N3045   1.322       .  A
N3044     Mn3047   2.216       .  S
N3045      C3049   1.355       .  A
Mn3046    Cl3048   2.549       .  S
Mn3047    Cl3048   2.539       .  S
C3049      C3634   1.474       .  S
C3050      C3602   1.477       .  S
N3051      C3055   1.353   1_554  A
N3051      H3083   1.040       .  S
N3052      C3059   1.351       .  A
N3052      C3060   1.349       .  A
N3053      C3057   1.352   1_554  A
N3053      H3084   1.039       .  S
N3054      C3061   1.348       .  A
N3054      C3062   1.349       .  A
C3055      C3063   1.386       .  A
C3055      C3071   1.411       .  A
C3056      C3072   1.413       .  A
C3056      C3064   1.387       .  A
C3057      C3065   1.387       .  A
C3057      C3074   1.414       .  A
C3058      C3073   1.415       .  A
C3058      C3066   1.387       .  A
C3059      C3071   1.411       .  A
C3059      C3067   1.385       .  A
C3060      C3074   1.410       .  A
C3060      C3068   1.386       .  A
C3061      C3069   1.387       .  A
C3061      C3072   1.409       .  A
C3062      C3070   1.386       .  A
C3062      C3073   1.409       .  A
C3063      H3075   1.082       .  S
C3064      H3076   1.082       .  S
C3065      H3077   1.082       .  S
C3066      H3078   1.082       .  S
C3067      C3068   1.378       .  A
C3067      H3079   1.082       .  S
C3068      H3080   1.082       .  S
C3069      C3070   1.375       .  A
C3069      H3081   1.082       .  S
C3070      H3082   1.082       .  S
C3071      C3586   1.489       .  S
C3072      C3557   1.482       .  S
C3073      C3538   1.485       .  S
C3074      C3573   1.484       .  S
N3085      C3090   1.350   1_554  A
N3085      C3089   1.349       .  A
N3085      H3117   1.041   1_554  S
N3086      C3093   1.347       .  A
N3086      C3094   1.348       .  A
N3087      C3092   1.351   1_554  A
N3087      C3091   1.350       .  A
N3087      H3118   1.040   1_554  S
N3088      C3095   1.345       .  A
N3088      C3096   1.344       .  A
C3089      C3097   1.387       .  A
C3089      C3105   1.408       .  A
C3090      C3106   1.411       .  A
C3090      C3098   1.387       .  A
C3091      C3099   1.386       .  A
C3091      C3108   1.411       .  A
C3092      C3107   1.415       .  A
C3092      C3100   1.389       .  A
C3093      C3105   1.406       .  A
C3093      C3101   1.386       .  A
C3094      C3108   1.407       .  A
C3094      C3102   1.386       .  A
C3095      C3103   1.386       .  A
C3095      C3106   1.404       .  A
C3096      C3104   1.386       .  A
C3096      C3107   1.404       .  A
C3097      C3098   1.375   1_554  A
C3097      H3109   1.083       .  S
C3098      H3110   1.082       .  S
C3099      C3100   1.376   1_554  A
C3099      H3111   1.082       .  S
C3100      H3112   1.082       .  S
C3101      C3102   1.379       .  A
C3101      H3113   1.082       .  S
C3102      H3114   1.082       .  S
C3103      C3104   1.378       .  A
C3103      H3115   1.082       .  S
C3104      H3116   1.082       .  S
C3105      C3490   1.481       .  S
C3106      C3525   1.477       .  S
C3107      C3506   1.476       .  S
C3108      C3474   1.485       .  S
N3119      N3120   1.322       .  A
N3119      N3125   1.313       .  A
N3119     Mn3148   2.196       .  S
N3120      C3127   1.353       .  A
N3121      N3123   1.312       .  A
N3121     Mn3137   2.178   1_455  S
N3122      C3128   1.349       .  A
N3123     Mn3148   2.197   1_455  S
N3124      C3128   1.354       .  A
N3125      N3126   1.314       .  A
N3125     Mn3137   2.172       .  S
N3126      C3127   1.346       .  A
C3127      C3522   1.460       .  S
C3128      C3509   1.469       .  S
N3129      N3135   1.313       .  A
N3129     Mn3159   2.230   1_455  S
N3130      C3138   1.359       .  A
N3131      N3132   1.312       .  A
N3131      N3133   1.313       .  A
N3131     Mn3137   2.167       .  S
N3132      C3139   1.344       .  A
N3133      N3134   1.330       .  A
N3133     Mn3159   2.245       .  S
N3134      C3139   1.365       .  A
N3135     Mn3137   2.169   1_455  S
N3136      C3138   1.349       .  A
Mn3137    Cl3161   2.536       .  S
C3138      C3570   1.492       .  S
C3139      C3589   1.498       .  S
N3140      N3141   1.316       .  A
N3140      N3146   1.316       .  A
N3141      C3149   1.348       .  A
N3142      N3144   1.316       .  A
N3142      N3143   1.322       .  A
N3142     Mn3160   2.213       .  S
N3143      C3150   1.356       .  A
N3144      N3145   1.319       .  A
N3144     Mn3148   2.196       .  S
N3145      C3150   1.352       .  A
N3146      N3147   1.323       .  A
N3147      C3149   1.357       .  A
Mn3148    Cl3161   2.546       .  S
C3149      C3426   1.473       .  S
C3150      C3461   1.486       .  S
N3151      N3152   1.324       .  A
N3151      N3157   1.319       .  A
N3151     Mn3159   2.223       .  S
N3152      C3162   1.357       .  A
N3153      N3154   1.321       .  A
N3153      N3155   1.318       .  A
N3154      C3163   1.354       .  A
N3155      N3156   1.320       .  A
N3156      C3163   1.353       .  A
N3157      N3158   1.318       .  A
N3157     Mn3160   2.206       .  S
N3158      C3162   1.350       .  A
Mn3159    Cl3161   2.556       .  S
Mn3160    Cl3161   2.538       .  S
C3162      C3442   1.488       .  S
C3163      C3413   1.480       .  S
N3164      C3169   1.353       .  A
N3164      C3168   1.354       .  A
N3164      H3196   1.040       .  S
N3165      C3172   1.354       .  A
N3165      C3173   1.351       .  A
N3166      C3171   1.355       .  A
N3166      C3170   1.352       .  A
N3166      H3197   1.040       .  S
N3167      C3174   1.349       .  A
N3167      C3175   1.351       .  A
C3168      C3176   1.387       .  A
C3168      C3184   1.417       .  A
C3169      C3185   1.415       .  A
C3169      C3177   1.386       .  A
C3170      C3178   1.388       .  A
C3170      C3187   1.417       .  A
C3171      C3186   1.418       .  A
C3171      C3179   1.387       .  A
C3172      C3184   1.415       .  A
C3172      C3180   1.385       .  A
C3173      C3187   1.415       .  A
C3173      C3181   1.388       .  A
C3174      C3182   1.386       .  A
C3174      C3185   1.409       .  A
C3175      C3183   1.387       .  A
C3175      C3186   1.412       .  A
C3176      C3177   1.376       .  A
C3176      H3188   1.082       .  S
C3177      H3189   1.082       .  S
C3178      C3179   1.379       .  A
C3178      H3190   1.082       .  S
C3179      H3191   1.082       .  S
C3180      C3181   1.374       .  A
C3182      C3183   1.371       .  A
C3182      H3194   1.082       .  S
C3183      H3195   1.082       .  S
C3184      C3410   1.499       .  S
C3185      C3429   1.486       .  S
C3186      C3618   1.495       .  S
C3187      C3605   1.487       .  S
N3198      C3203   1.352       .  A
N3198      C3202   1.353       .  A
N3198      H3230   1.039       .  S
N3199      C3206   1.353       .  A
N3199      C3207   1.351       .  A
N3200      C3205   1.354       .  A
N3200      C3204   1.353       .  A
N3200      H3231   1.040       .  S
N3201      C3208   1.351       .  A
N3201      C3209   1.351       .  A
C3202      C3210   1.386       .  A
C3202      C3218   1.413       .  A
C3203      C3219   1.413       .  A
C3203      C3211   1.388       .  A
C3204      C3212   1.386       .  A
C3204      C3221   1.415       .  A
C3205      C3220   1.415       .  A
C3205      C3213   1.387       .  A
C3206      C3218   1.415       .  A
C3206      C3214   1.385       .  A
C3207      C3221   1.414       .  A
C3207      C3215   1.387       .  A
C3208      C3216   1.387       .  A
C3208      C3219   1.413       .  A
C3209      C3217   1.387       .  A
C3209      C3220   1.414       .  A
C3210      C3211   1.373       .  A
C3210      H3222   1.082       .  S
C3211      H3223   1.082       .  S
C3212      C3213   1.375       .  A
C3214      C3215   1.375       .  A
C3214      H3226   1.082       .  S
C3215      H3227   1.082       .  S
C3216      C3217   1.376       .  A
C3216      H3228   1.082       .  S
C3217      H3229   1.082       .  S
C3218      C3458   1.495       .  S
C3219      C3653   1.484       .  S
C3220      C3637   1.490       .  S
C3221      C3445   1.492       .  S
N3232      C3237   1.355       .  A
N3232      C3236   1.352       .  A
N3232      H3264   1.037       .  S
N3233      C3240   1.351       .  A
N3233      C3241   1.352       .  A
N3234      C3239   1.353       .  A
N3234      C3238   1.352       .  A
N3234      H3265   1.033       .  S
N3235      C3242   1.348       .  A
N3235      C3243   1.348       .  A
C3236      C3244   1.386       .  A
C3236      C3252   1.413       .  A
C3237      C3253   1.418       .  A
C3237      C3245   1.388       .  A
C3238      C3246   1.386       .  A
C3238      C3255   1.414       .  A
C3239      C3254   1.417       .  A
C3239      C3247   1.387       .  A
C3240      C3252   1.411       .  A
C3240      C3248   1.386       .  A
C3241      C3255   1.413       .  A
C3241      C3249   1.386       .  A
C3242      C3250   1.387       .  A
C3242      C3253   1.410       .  A
C3243      C3251   1.386       .  A
C3243      C3254   1.408       .  A
C3244      C3245   1.378       .  A
C3244      H3256   1.082       .  S
C3245      H3257   1.082       .  S
C3246      C3247   1.378       .  A
C3246      H3258   1.082       .  S
C3247      H3259   1.082       .  S
C3248      C3249   1.369       .  A
C3250      C3251   1.372       .  A
C3250      H3262   1.082       .  S
C3251      H3263   1.082       .  S
C3252      C3378   1.483       .  S
C3253      C3397   1.492       .  S
C3254      C3685   1.484       .  S
C3255      C3669   1.484       .  S
N3266      C3271   1.351       .  A
N3266      C3270   1.352       .  A
N3266      H3298   1.040       .  S
N3267      C3274   1.350       .  A
N3267      C3275   1.350       .  A
N3268      C3273   1.353       .  A
N3268      C3272   1.352       .  A
N3268      H3299   1.038       .  S
N3269      C3276   1.350       .  A
N3269      C3277   1.350       .  A
C3270      C3278   1.386       .  A
C3270      C3286   1.412       .  A
C3271      C3287   1.412       .  A
C3271      C3279   1.387       .  A
C3272      C3280   1.388       .  A
C3272      C3289   1.416       .  A
C3273      C3288   1.414       .  A
C3273      C3281   1.387       .  A
C3274      C3286   1.411       .  A
C3274      C3282   1.385       .  A
C3275      C3289   1.412       .  A
C3275      C3283   1.387       .  A
C3276      C3284   1.386       .  A
C3276      C3287   1.411       .  A
C3277      C3285   1.387       .  A
C3277      C3288   1.413       .  A
C3278      C3279   1.375       .  A
C3278      H3290   1.082       .  S
C3279      H3291   1.082       .  S
C3280      C3281   1.376       .  A
C3282      C3283   1.376       .  A
C3282      H3294   1.082       .  S
C3283      H3295   1.082       .  S
C3284      C3285   1.375       .  A
C3284      H3296   1.082       .  S
C3285      H3297   1.082       .  S
C3286      C3717   1.490       .  S
C3287      C3362   1.483       .  S
C3288      C3349   1.487       .  S
C3289      C3701   1.488       .  S
N3300      N3301   1.325       .  A
N3300      N3306   1.312       .  A
N3300     Mn3329   2.218       .  S
N3301      C3308   1.360       .  A
N3302      N3304   1.313       .  A
N3302     Mn3318   2.170   1_455  S
N3303      C3309   1.349       .  A
N3304     Mn3329   2.218   1_455  S
N3305      C3309   1.358       .  A
N3306      N3307   1.311       .  A
N3306     Mn3318   2.157       .  S
N3307      C3308   1.344       .  A
C3308      C3493   1.482       .  S
C3309      C3477   1.486       .  S
N3310      N3316   1.312       .  A
N3310     Mn3340   2.208   1_455  S
N3311      C3319   1.357       .  A
N3312      N3313   1.316       .  A
N3312      N3314   1.313       .  A
N3312     Mn3318   2.178       .  S
N3313      C3320   1.348       .  A
N3314      N3315   1.322       .  A
N3314     Mn3340   2.200       .  S
N3315      C3320   1.354       .  A
N3316     Mn3318   2.170   1_455  S
N3317      C3319   1.346       .  A
Mn3318    Cl3342   2.532       .  S
C3319      C3541   1.475       .  S
C3320      C3554   1.469       .  S
N3321      N3322   1.319       .  A
N3321      N3327   1.316       .  A
N3322      C3330   1.353       .  A
N3323      N3325   1.317       .  A
N3323      N3324   1.321       .  A
N3323     Mn3341   2.212       .  S
N3324      C3331   1.354       .  A
N3325      N3326   1.319       .  A
N3325     Mn3329   2.202       .  S
N3326      C3331   1.352       .  A
N3327      N3328   1.319       .  A
N3328      C3330   1.354       .  A
Mn3329    Cl3342   2.549       .  S
C3330      C3394   1.485       .  S
C3331      C3365   1.472       .  S
N3332      N3333   1.317       .  A
N3332      N3338   1.316       .  A
N3332     Mn3340   2.192       .  S
N3333      C3343   1.350       .  A
N3334      N3335   1.320       .  A
N3334      N3336   1.316       .  A
N3335      C3344   1.355       .  A
N3336      N3337   1.318       .  A
N3337      C3344   1.350       .  A
N3338      N3339   1.322       .  A
N3338     Mn3341   2.213       .  S
N3339      C3343   1.356       .  A
Mn3340    Cl3342   2.546       .  S
Mn3341    Cl3342   2.538       .  S
C3343      C3346   1.471       .  S
C3344      C3381   1.473       .  S
C3345      C3346   1.403       .  A
C3345      H3352   1.083       .  S
C3347      C3348   1.405       .  A
C3347      C3354   1.505       .  S
C3348      C3349   1.405       .  A
C3348      H3353   1.084       .  S
C3349      C3350   1.412       .  A
C3350      C3351   1.508       .  S
C3351      H3356   1.110       .  S
C3351      H3357   1.109       .  S
C3354      H3360   1.111       .  S
C3361      C3362   1.400       .  A
C3361      C3366   1.400       .  A
C3361      H3368   1.084       .  S
C3362      C3363   1.415       .  A
C3363      C3364   1.405       .  A
C3363      C3370   1.507       .  S
C3364      C3365   1.401       .  A
C3364      H3369   1.084       .  S
C3365      C3366   1.414       .  A
C3366      C3367   1.507       .  S
C3367      H3371   1.111       .  S
C3367      H3372   1.109       .  S
C3367      H3373   1.110       .  S
C3370      H3374   1.110       .  S
C3370      H3375   1.108       .  S
C3370      H3376   1.110       .  S
C3377      C3382   1.401   1_545  A
C3377      H3384   1.084       .  S
C3378      C3379   1.414       .  A
C3379      C3380   1.402       .  A
C3379      C3386   1.507       .  S
C3380      H3385   1.085       .  S
C3381      C3382   1.415       .  A
C3382      C3383   1.507       .  S
C3383      H3387   1.111       .  S
C3383      H3388   1.110       .  S
C3383      H3389   1.108       .  S
C3386      H3390   1.108       .  S
C3386      H3391   1.110       .  S
C3386      H3392   1.111       .  S
C3393      C3394   1.406       .  A
C3393      C3398   1.403       .  A
C3393      H3400   1.085       .  S
C3394      C3395   1.419       .  A
C3395      C3396   1.402       .  A
C3395      C3402   1.508       .  S
C3396      C3397   1.404       .  A
C3396      H3401   1.085       .  S
C3397      C3398   1.413       .  A
C3398      C3399   1.507       .  S
C3399      H3403   1.110       .  S
C3399      H3404   1.108       .  S
C3399      H3405   1.110       .  S
C3402      H3406   1.107       .  S
C3409      C3410   1.405       .  A
C3410      C3411   1.420       .  A
C3411      C3412   1.407   1_565  A
C3411      C3418   1.507       .  S
C3412      H3417   1.085       .  S
C3413      C3414   1.416       .  A
C3414      C3415   1.509       .  S
C3415      H3419   1.111       .  S
C3415      H3420   1.108       .  S
C3415      H3421   1.110       .  S
C3418      H3422   1.107       .  S
C3418      H3423   1.110       .  S
C3418      H3424   1.111   1_565  S
C3425      C3426   1.399       .  A
C3425      C3430   1.404       .  A
C3425      H3432   1.084       .  S
C3426      C3427   1.418       .  A
C3427      C3428   1.401       .  A
C3427      C3434   1.509       .  S
C3428      C3429   1.399       .  A
C3428      H3433   1.084       .  S
C3429      C3430   1.415       .  A
C3430      C3431   1.507       .  S
C3431      H3435   1.111       .  S
C3431      H3436   1.111       .  S
C3431      H3437   1.109       .  S
C3434      H3438   1.109       .  S
C3434      H3439   1.108       .  S
C3434      H3440   1.111       .  S
C3441      C3446   1.407   1_545  A
C3441      H3448   1.084       .  S
C3442      C3443   1.422       .  A
C3443      C3450   1.509       .  S
C3444      C3445   1.400       .  A
C3444      H3449   1.084       .  S
C3445      C3446   1.412       .  A
C3446      C3447   1.507       .  S
C3447      H3451   1.111       .  S
C3447      H3452   1.108       .  S
C3447      H3453   1.111       .  S
C3450      H3454   1.107       .  S
C3450      H3455   1.109       .  S
C3450      H3456   1.111       .  S
C3457      C3458   1.404       .  A
C3457      C3462   1.405       .  A
C3457      H3464   1.084       .  S
C3458      C3459   1.415       .  A
C3459      C3460   1.404       .  A
C3459      C3466   1.507       .  S
C3460      C3461   1.405       .  A
C3460      H3465   1.085       .  S
C3461      C3462   1.418       .  A
C3462      C3463   1.508       .  S
C3463      H3467   1.111       .  S
C3463      H3468   1.110       .  S
C3463      H3469   1.108       .  S
C3466      H3470   1.110       .  S
C3466      H3471   1.107       .  S
C3466      H3472   1.110       .  S
C3473      C3474   1.404       .  A
C3473      C3478   1.409       .  A
C3473      H3480   1.084       .  S
C3474      C3475   1.412       .  A
C3475      C3476   1.393       .  A
C3475      C3482   1.510       .  S
C3476      C3477   1.406       .  A
C3476      H3481   1.084       .  S
C3477      C3478   1.418       .  A
C3478      C3479   1.506       .  S
C3479      H3483   1.111       .  S
C3479      H3484   1.109       .  S
C3479      H3485   1.111       .  S
C3482      H3486   1.110       .  S
C3482      H3487   1.108       .  S
C3482      H3488   1.111       .  S
C3489      C3490   1.398       .  A
C3489      C3494   1.394       .  A
C3489      H3496   1.085       .  S
C3490      C3491   1.409       .  A
C3491      C3492   1.405       .  A
C3491      C3498   1.505       .  S
C3492      C3493   1.407       .  A
C3492      H3497   1.083       .  S
C3493      C3494   1.423       .  A
C3494      C3495   1.512       .  S
C3495      H3499   1.111       .  S
C3495      H3500   1.110       .  S
C3495      H3501   1.108       .  S
C3498      H3502   1.110       .  S
C3498      H3503   1.108       .  S
C3498      H3504   1.111       .  S
C3505      C3506   1.402       .  A
C3505      C3510   1.403       .  A
C3505      H3512   1.084       .  S
C3506      C3507   1.408       .  A
C3507      C3508   1.398       .  A
C3507      C3514   1.507       .  S
C3508      C3509   1.403       .  A
C3508      H3513   1.085       .  S
C3509      C3510   1.411       .  A
C3510      C3511   1.506       .  S
C3511      H3515   1.111       .  S
C3511      H3516   1.110       .  S
C3511      H3517   1.110       .  S
C3514      H3518   1.110       .  S
C3514      H3519   1.110       .  S
C3514      H3520   1.111       .  S
C3521      C3522   1.399       .  A
C3521      C3526   1.401       .  A
C3521      H3528   1.084       .  S
C3522      C3523   1.411       .  A
C3523      C3524   1.398       .  A
C3523      C3530   1.508       .  S
C3524      C3525   1.400       .  A
C3524      H3529   1.084       .  S
C3525      C3526   1.413       .  A
C3526      C3527   1.507       .  S
C3527      H3531   1.111       .  S
C3527      H3532   1.109       .  S
C3527      H3533   1.110       .  S
C3530      H3534   1.108       .  S
C3530      H3535   1.110       .  S
C3530      H3536   1.111       .  S
C3537      C3538   1.399       .  A
C3537      C3542   1.400       .  A
C3537      H3544   1.084       .  S
C3538      C3539   1.412       .  A
C3539      C3540   1.404       .  A
C3540      C3541   1.402       .  A
C3541      C3542   1.418       .  A
C3542      C3543   1.508       .  S
C3543      H3547   1.111       .  S
C3543      H3548   1.107       .  S
C3543      H3549   1.110       .  S
C3546      H3550   1.109       .  S
C3546      H3551   1.110       .  S
C3546      H3552   1.111       .  S
C3553      C3554   1.400       .  A
C3553      C3558   1.401       .  A
C3553      H3560   1.084       .  S
C3554      C3555   1.415       .  A
C3555      C3556   1.401       .  A
C3555      C3562   1.508       .  S
C3556      C3557   1.400       .  A
C3556      H3561   1.084       .  S
C3557      C3558   1.413       .  A
C3558      C3559   1.507   1_565  S
C3559      H3563   1.111       .  S
C3559      H3565   1.109       .  S
C3562      H3566   1.110       .  S
C3562      H3567   1.105       .  S
C3562      H3568   1.111       .  S
C3569      C3570   1.411       .  A
C3569      C3574   1.400       .  A
C3569      H3576   1.083       .  S
C3570      C3571   1.420       .  A
C3571      C3572   1.408       .  A
C3571      C3578   1.506       .  S
C3572      C3573   1.401       .  A
C3572      H3577   1.084       .  S
C3573      C3574   1.407       .  A
C3574      C3575   1.508       .  S
C3575      H3579   1.111       .  S
C3575      H3580   1.110       .  S
C3575      H3581   1.110       .  S
C3578      H3582   1.110       .  S
C3585      C3586   1.396       .  A
C3585      C3590   1.401       .  A
C3585      H3592   1.085       .  S
C3586      C3587   1.413       .  A
C3587      C3588   1.409       .  A
C3587      C3594   1.505       .  S
C3588      C3589   1.408       .  A
C3588      H3593   1.084       .  S
C3589      C3590   1.429       .  A
C3590      C3591   1.511       .  S
C3591      H3595   1.111       .  S
C3591      H3596   1.109       .  S
C3591      H3597   1.110       .  S
C3594      H3598   1.110       .  S
C3594      H3599   1.109       .  S
C3594      H3600   1.110       .  S
C3601      C3602   1.404       .  A
C3601      H3608   1.083       .  S
C3602      C3603   1.411       .  A
C3603      C3610   1.506       .  S
C3604      C3605   1.403       .  A
C3604      H3609   1.084       .  S
C3605      C3606   1.412       .  A
C3606      C3607   1.508       .  S
C3607      H3611   1.111   1_565  S
C3607      H3612   1.110       .  S
C3607      H3613   1.109       .  S
C3610      H3614   1.109       .  S
C3610      H3615   1.111       .  S
C3617      C3618   1.404       .  A
C3617      C3622   1.404       .  A
C3617      H3624   1.084       .  S
C3618      C3619   1.414       .  A
C3619      C3620   1.404       .  A
C3619      C3626   1.507       .  S
C3620      C3621   1.406       .  A
C3620      H3625   1.085       .  S
C3621      C3622   1.418       .  A
C3622      C3623   1.508       .  S
C3623      H3627   1.111       .  S
C3623      H3628   1.106       .  S
C3623      H3629   1.110       .  S
C3626      H3630   1.110       .  S
C3626      H3631   1.107       .  S
C3626      H3632   1.110       .  S
C3633      C3634   1.399       .  A
C3633      H3640   1.084       .  S
C3635      C3636   1.403   1_545  A
C3635      C3642   1.507       .  S
C3636      C3637   1.402       .  A
C3636      H3641   1.084       .  S
C3637      C3638   1.417       .  A
C3638      C3639   1.506       .  S
C3639      H3644   1.108       .  S
C3639      H3645   1.110       .  S
C3642      H3648   1.111   1_545  S
C3649      C3650   1.401       .  A
C3649      C3654   1.405       .  A
C3649      H3656   1.084       .  S
C3650      C3651   1.414       .  A
C3651      C3652   1.400       .  A
C3651      C3658   1.506       .  S
C3652      C3653   1.399       .  A
C3652      H3657   1.084       .  S
C3653      C3654   1.413       .  A
C3654      C3655   1.506       .  S
C3655      H3659   1.111       .  S
C3655      H3660   1.110       .  S
C3655      H3661   1.110       .  S
C3658      H3662   1.107       .  S
C3658      H3663   1.109       .  S
C3658      H3664   1.111       .  S
C3665      C3666   1.401       .  A
C3665      C3670   1.400   1_565  A
C3665      H3672   1.084       .  S
C3667      C3668   1.406       .  A
C3667      C3674   1.505       .  S
C3668      C3669   1.404       .  A
C3668      H3673   1.084       .  S
C3670      C3671   1.509       .  S
C3671      H3675   1.110       .  S
C3671      H3677   1.111       .  S
C3674      H3678   1.110       .  S
C3674      H3679   1.111       .  S
C3674      H3680   1.111       .  S
C3681      C3682   1.398       .  A
C3681      C3686   1.402       .  A
C3681      H3688   1.084       .  S
C3682      C3683   1.416       .  A
C3683      C3684   1.402       .  A
C3683      C3690   1.508       .  S
C3684      C3685   1.400       .  A
C3684      H3689   1.084       .  S
C3685      C3686   1.415       .  A
C3686      C3687   1.507       .  S
C3687      H3691   1.111       .  S
C3687      H3692   1.110       .  S
C3687      H3693   1.109       .  S
C3690      H3694   1.109       .  S
C3690      H3695   1.110       .  S
C3690      H3696   1.111       .  S
C3697      C3702   1.405       .  A
C3697      H3704   1.084       .  S
C3698      C3699   1.421       .  A
C3699      C3706   1.509       .  S
C3700      C3701   1.400       .  A
C3700      H3705   1.084       .  S
C3701      C3702   1.413       .  A
C3702      C3703   1.507       .  S
C3703      H3707   1.111       .  S
C3703      H3708   1.108       .  S
C3703      H3709   1.110       .  S
C3706      H3710   1.110       .  S
C3706      H3711   1.110       .  S
C3706      H3712   1.111       .  S
C3713      C3714   1.405       .  A
C3713      C3718   1.403       .  A
C3713      H3720   1.084       .  S
C3714      C3715   1.414       .  A
C3715      C3716   1.405       .  A
C3715      C3722   1.507       .  S
C3716      C3717   1.403       .  A
C3716      H3721   1.084       .  S
C3717      C3718   1.415       .  A
C3718      C3719   1.509       .  S
C3719      H3723   1.111       .  S
C3719      H3724   1.107       .  S
C3719      H3725   1.110       .  S
C3722      H3726   1.109       .  S
C3722      H3727   1.110       .  S
C3722      H3728   1.111       .  S
C3729      C3730   1.398       .  A
C3729      C3734   1.398       .  A
C3729      H3736   1.084       .  S
C3730      C3731   1.410       .  A
C3731      C3732   1.404       .  A
C3731      C3738   1.505       .  S
C3732      C3733   1.403       .  A
C3732      H3737   1.084       .  S
C3733      C3734   1.417       .  A
C3734      C3735   1.510       .  S
C3735      H3739   1.111       .  S
C3735      H3740   1.110       .  S
C3735      H3741   1.108       .  S
C3738      H3742   1.110       .  S
C3738      H3743   1.110       .  S
C3738      H3744   1.111       .  S
C3745      C3746   1.405       .  A
C3745      C3750   1.405       .  A
C3745      H3752   1.084       .  S
C3746      C3747   1.410       .  A
C3747      C3748   1.400       .  A
C3747      C3754   1.507       .  S
C3748      C3749   1.403       .  A
C3748      H3753   1.084       .  S
C3749      C3750   1.410       .  A
C3750      C3751   1.506       .  S
C3751      H3755   1.111       .  S
C3751      H3756   1.110       .  S
C3751      H3757   1.111       .  S
C3754      H3758   1.109       .  S
C3754      H3759   1.111       .  S
C3754      H3760   1.111       .  S
C3761      C3762   1.409       .  A
C3761      C3766   1.401       .  A
C3761      H3768   1.083       .  S
C3762      C3763   1.421       .  A
C3763      C3764   1.413       .  A
C3763      C3770   1.505       .  S
C3764      C3765   1.403       .  A
C3764      H3769   1.084       .  S
C3765      C3766   1.408       .  A
C3766      C3767   1.507       .  S
C3767      H3771   1.107       .  S
C3767      H3772   1.110       .  S
C3767      H3773   1.110       .  S
C3770      H3774   1.110       .  S
C3770      H3775   1.110       .  S
C3770      H3776   1.111       .  S
C3777      C3778   1.406       .  A
C3777      C3782   1.412       .  A
C3777      H3784   1.084       .  S
C3778      C3779   1.414       .  A
C3779      C3780   1.393       .  A
C3779      C3786   1.512       .  S
C3780      C3781   1.405       .  A
C3780      H3785   1.083       .  S
C3781      C3782   1.419       .  A
C3782      C3783   1.506       .  S
C3783      H3787   1.111       .  S
C3783      H3788   1.110       .  S
C3783      H3789   1.110       .  S
C3786      H3790   1.106       .  S
C3786      H3791   1.111       .  S
C3786      H3792   1.110       .  S
C3793      C3794   1.402       .  A
C3793      C3798   1.414       .  A
C3793      H3800   1.084       .  S
C3794      C3795   1.406       .  A
C3795      C3796   1.398       .  A
C3795      C3802   1.510       .  S
C3796      C3797   1.417       .  A
C3796      H3801   1.077       .  S
C3797      C3798   1.429       .  A
C3798      C3799   1.507       .  S
C3799      H3803   1.111       .  S
C3799      H3804   1.107       .  S
C3799      H3805   1.110       .  S
C3802      H3806   1.110       .  S
C3802      H3807   1.109       .  S
C3802      H3808   1.111       .  S
C3809      C3810   1.397       .  A
C3809      C3814   1.402       .  A
C3809      H3816   1.085       .  S
C3810      C3811   1.411       .  A
C3811      C3812   1.410       .  A
C3811      C3818   1.505       .  S
C3812      C3813   1.409       .  A
C3812      H3817   1.083       .  S
C3813      C3814   1.429       .  A
C3814      C3815   1.510       .  S
C3815      H3819   1.111       .  S
C3815      H3820   1.107       .  S
C3815      H3821   1.110       .  S
C3818      H3822   1.110       .  S
C3818      H3824   1.111       .  S
C3825      C3826   1.408       .  A
C3825      C3830   1.396       .  A
C3825      H3832   1.083       .  S
C3826      C3827   1.421       .  A
C3827      C3828   1.409       .  A
C3827      C3834   1.506   1_565  S
C3828      C3829   1.400       .  A
C3828      H3833   1.084   1_565  S
C3829      C3830   1.408       .  A
C3830      C3831   1.509       .  S
C3831      H3835   1.109       .  S
C3831      H3836   1.110       .  S
C3831      H3837   1.109       .  S
C3834      H3839   1.110       .  S
C3834      H3840   1.111       .  S
C3841      C3842   1.405       .  A
C3841      C3846   1.406       .  A
C3841      H3848   1.084       .  S
C3842      C3843   1.421       .  A
C3843      C3844   1.398       .  A
C3843      C3850   1.506       .  S
C3844      C3845   1.394       .  A
C3844      H3849   1.085       .  S
C3845      C3846   1.411       .  A
C3846      C3847   1.505   1_565  S
C3847      H3851   1.111       .  S
C3847      H3852   1.111       .  S
C3850      H3854   1.110       .  S
C3850      H3855   1.109       .  S
C3850      H3856   1.110       .  S
