geometry optimzed in LAMMPS
_audit_creation_date              2020-12-01 
_audit_creation_method            'lammps2cif' 
_symmetry_space_group_name_H-M    'P1' 
_symmetry_Int_Tables_number       1 
_symmetry_cell_setting            triclinic 
loop_ 
_symmetry_equiv_pos_as_xyz 
  x,y,z 
_cell_length_a                    30.17422734 
_cell_length_b                    30.707583298319445 
_cell_length_c                    32.92503166044782 
_cell_angle_alpha                 89.69051361327455 
_cell_angle_beta                  90.31436876493538 
_cell_angle_gamma                 120.31342341517772 
loop_ 
_atom_site_label 
_atom_site_type_symbol 
_atom_site_fract_x 
_atom_site_fract_y 
_atom_site_fract_z 
_atom_site_charge 
O1          O  0.28642730  0.58943298  0.29957173    -0.81000
C2          C  0.35383317  0.75666351  0.19313515     0.98400
O3          O  0.31385352  0.73653726  0.21469500    -0.70100
O4          O  0.25273799  0.63998292  0.20607616    -0.73700
Al5        Al  0.28436058  0.68129265  0.25167940     1.49000
C6          C  0.24587757  0.59703162  0.19775752     0.93600
O7          O  0.36647263  0.61799568  0.20530578    -0.79900
O8          O  0.42068357  0.70663639  0.29860273    -0.73500
Al9        Al  0.32765280  0.60865006  0.25249413     1.90100
O10         O  0.43123855  0.69307236  0.21756691    -0.72500
O11         O  0.38880678  0.76934275  0.27990453    -0.72400
O12         O  0.38976617  0.74802133  0.20016290    -0.78100
O13         O  0.30871613  0.72405951  0.29781395    -0.76300
O14         O  0.33770934  0.67121638  0.25120293    -1.12400
O15         O  0.24345830  0.62815357  0.28833739    -0.71600
C16         C  0.24992330  0.59646237  0.30791909     0.99100
C17         C  0.41128890  0.65265471  0.19754732     0.95500
Al18       Al  0.40181578  0.72436145  0.24926249     1.55600
O19         O  0.26962160  0.57985945  0.21745447    -0.76200
C20         C  0.35209819  0.76308797  0.30198546     0.99700
C21         C  0.41453378  0.66408490  0.30775760     0.94600
O22         O  0.38408331  0.62504008  0.28793031    -0.81500
O23         O  0.57860462  0.27730152  0.19763995    -0.81000
C24         C  0.75016710  0.34790277  0.30321590     0.98400
O25         O  0.73007493  0.30798520  0.28256426    -0.70100
O26         O  0.63208189  0.25037773  0.29639165    -0.73700
Al27       Al  0.67079866  0.27648170  0.24843463     1.49000
C28         C  0.58604509  0.23848139  0.30183107     0.93600
O29         O  0.60417446  0.35443542  0.29279865    -0.79900
O30         O  0.69217489  0.40924424  0.19818793    -0.73500
Al31       Al  0.59533710  0.31659277  0.24514383     1.90100
O32         O  0.67963646  0.41857393  0.27944341    -0.72500
O33         O  0.75659102  0.37770319  0.21436555    -0.72400
O34         O  0.73953469  0.38187029  0.29578384    -0.78100
O35         O  0.71106032  0.29702551  0.20076130    -0.76300
O36         O  0.65957305  0.32821579  0.24658584    -1.12400
O37         O  0.61416060  0.23271578  0.21461199    -0.71600
C38         C  0.58406645  0.23973054  0.19248632     0.99100
C39         C  0.63870036  0.39923785  0.29987122     0.95500
Al40       Al  0.71243634  0.39134584  0.24693870     1.55600
O41         O  0.56656791  0.25794944  0.27940384    -0.76200
C42         C  0.74937471  0.33994405  0.19386431     0.99700
C43         C  0.64857965  0.40318430  0.19030127     0.94600
O44         O  0.60957406  0.37225482  0.21026738    -0.81500
N45         N  0.92253457  0.39738982  0.49848064    -0.35800
N46         N  0.99902793  0.43257132  0.43575422    -0.56400
N47         N  0.07680023  0.47138054  0.49927900    -0.35800
N48         N  0.99920599  0.42079088  0.06566888    -0.56400
C49         C  0.89357294  0.37406630  0.46555484     0.27800
C50         C  0.89226207  0.36442386  0.03375633     0.27800
C51         C  0.10565118  0.47697384  0.46636115     0.27800
C52         C  0.10666278  0.47823564  0.03634411     0.27800
C53         C  0.95786408  0.42417272  0.41333433     0.36400
C54         C  0.04080817  0.46296480  0.41338396     0.36400
C55         C  0.95700787  0.40420214  0.08907099     0.36400
C56         C  0.03979071  0.45029004  0.08973319     0.36400
C57         C  0.84606678  0.33481382  0.47759142    -0.21100
C58         C  0.84331705  0.33046418  0.01980000    -0.21100
C59         C  0.15401275  0.48718323  0.47869767    -0.21100
C60         C  0.15625007  0.49303755  0.02428941    -0.21100
C61         C  0.97349039  0.44847404  0.37612248    -0.22100
C62         C  0.02622383  0.47289677  0.37606232    -0.22100
C63         C  0.97103512  0.42118995  0.12857895    -0.22100
C64         C  0.02354836  0.45062279  0.12895000    -0.22100
C65         C  0.90646711  0.39241671  0.42556268    -0.17500
C66         C  0.90584174  0.37529909  0.07508471    -0.17500
C67         C  0.09141332  0.47654079  0.07687406    -0.17500
C68         C  0.09183109  0.48080413  0.42602766    -0.17500
H69         H  0.81394133  0.31029892  0.45829626     0.15400
H70         H  0.81014287  0.30524332  0.03778753     0.15400
H71         H  0.18639902  0.49549187  0.45952597     0.15400
H72         H  0.18880794  0.50164933  0.04359704     0.15400
H73         H  0.94947015  0.44847600  0.35159375     0.13700
H74         H  0.05097084  0.49564479  0.35153563     0.13700
H75         H  0.94598804  0.41414467  0.15423556     0.13700
H76         H  0.04699898  0.47050311  0.15498822     0.13700
H77         H  0.95618661  0.43230297  0.49849458     0.27000
H78         H  0.04239971  0.47149164  0.49887718     0.27000
N79         N  0.59619389  0.52106644  0.49564103    -0.35800
N80         N  0.57011862  0.57009592  0.06125169    -0.56400
N81         N  0.52935709  0.60651981  0.49823086    -0.35800
N82         N  0.57372435  0.57475167  0.43433347    -0.56400
C83         C  0.63013159  0.52576409  0.03015260     0.27800
C84         C  0.61969086  0.51512001  0.46313494     0.27800
C85         C  0.53116878  0.63611911  0.03390304     0.27800
C86         C  0.52990017  0.63505934  0.46681082     0.27800
C87         C  0.57709961  0.53608707  0.08213262     0.36400
C88         C  0.53752587  0.57835126  0.08330553     0.36400
C89         C  0.58338705  0.54542539  0.40978032     0.36400
C90         C  0.54934575  0.59267681  0.41121894     0.36400
C91         C  0.66812825  0.51584547  0.01808272    -0.21100
C92         C  0.65385579  0.50016858  0.47584106    -0.21100
C93         C  0.52550108  0.67698214  0.02393407    -0.21100
C94         C  0.52007960  0.67193226  0.48071309    -0.21100
C95         C  0.54938555  0.52310001  0.11798738    -0.22100
C96         C  0.52414044  0.54988632  0.11870119    -0.22100
C97         C  0.56726382  0.54659276  0.37050973    -0.22100
C98         C  0.54551993  0.57651226  0.37143737    -0.22100
C99         C  0.61040869  0.51889165  0.06998924    -0.17500
C100        C  0.60728949  0.51822361  0.42233551    -0.17500
C101        C  0.53019485  0.62318781  0.42561026    -0.17500
C102        C  0.52248951  0.61368795  0.07281732    -0.17500
H103        H  0.69060401  0.50547371  0.03726780     0.15400
H104        H  0.67735610  0.49102453  0.45709324     0.15400
H105        H  0.51728022  0.69948194  0.04437374     0.15400
H106        H  0.51608267  0.69933613  0.46266748     0.15400
H107        H  0.54766361  0.49718659  0.14118757     0.13700
H108        H  0.49914032  0.54880557  0.14262183     0.13700
H109        H  0.57031529  0.52745657  0.34408879     0.13700
H110        H  0.52834334  0.58491080  0.34587017     0.13700
H111        H  0.56376149  0.52461526  0.49461710     0.27000
H112        H  0.52730292  0.57190462  0.49563249     0.27000
N113        N  0.46531938  0.07398401  0.99969968    -0.35800
N114        N  0.42249115  0.99596847  0.06159777    -0.56400
N115        N  0.39297794  0.92264389  0.99745024    -0.35800
N116        N  0.41929943  0.00082854  0.43907858    -0.56400
C117        C  0.46707603  0.10093097  0.03247007     0.27800
C118        C  0.47585677  0.10749541  0.46875007     0.27800
C119        C  0.36963951  0.89256145  0.02971397     0.27800
C120        C  0.38247436  0.89610336  0.46732949     0.27800
C121        C  0.45185648  0.03670615  0.08477981     0.36400
C122        C  0.41578040  0.95572997  0.08330470     0.36400
C123        C  0.43342791  0.04151911  0.41511976     0.36400
C124        C  0.39780193  0.96020334  0.41437493     0.36400
C125        C  0.47675426  0.14825892  0.02033794    -0.21100
C126        C  0.51323198  0.15538175  0.48108186    -0.21100
C127        C  0.33255844  0.84506278  0.01657508    -0.21100
C128        C  0.37812371  0.85086477  0.47969283    -0.21100
C129        C  0.46250681  0.02231258  0.12182715    -0.22100
C130        C  0.43979044  0.97080488  0.12080575    -0.22100
C131        C  0.42034716  0.02658259  0.37505360    -0.22100
C132        C  0.39772799  0.97506454  0.37460281    -0.22100
C133        C  0.46901160  0.08673055  0.07283778    -0.17500
C134        C  0.46491554  0.09200018  0.42771523    -0.17500
C135        C  0.38420011  0.91083957  0.42640221    -0.17500
C136        C  0.38630515  0.90541321  0.07016601    -0.17500
H137        H  0.48243473  0.17909083  0.03965508     0.15400
H138        H  0.53836420  0.18716725  0.46206405     0.15400
H139        H  0.30873795  0.81231019  0.03518032     0.15400
H140        H  0.37572632  0.82106452  0.46073062     0.15400
H141        H  0.48503989  0.04644262  0.14665685     0.13700
H142        H  0.44108099  0.94722325  0.14478667     0.13700
H143        H  0.42823951  0.05044458  0.34861058     0.13700
H144        H  0.38468721  0.95149988  0.34782637     0.13700
H145        H  0.46711481  0.04116728  0.00040901     0.27000
H146        H  0.42703140  0.95689478  0.99853129     0.27000
C147        C  0.49797950  0.12732315  0.10272308    -0.04500
C148        C  0.55187634  0.15079735  0.10379700    -0.01600
C149        C  0.58011309  0.18929039  0.13192801     0.03300
C150        C  0.55439750  0.20265170  0.16056277    -0.04500
C151        C  0.50023060  0.17899164  0.15939622    -0.01600
C152        C  0.47208814  0.14150935  0.13025898     0.03300
C153        C  0.57809171  0.13416993  0.07657894     0.38000
C154        C  0.47318707  0.19229652  0.18847680     0.38000
C155        C  0.41652959  0.11688464  0.12879689     0.36400
C156        C  0.63562388  0.21687952  0.12952891     0.36400
N157        N  0.37220008  0.09703240  0.12745541    -0.38400
N158        N  0.67977747  0.23880001  0.12606394    -0.38400
N159        N  0.45101340  0.20267669  0.21130803    -0.37900
N160        N  0.59869969  0.12032794  0.05517278    -0.37900
C161        C  0.55445011  0.20077253  0.33428377    -0.04500
C162        C  0.57462448  0.17463648  0.35661724    -0.01600
C163        C  0.54500715  0.13933157  0.38679841     0.03300
C164        C  0.49537415  0.12981124  0.39575737    -0.04500
C165        C  0.47451552  0.15463331  0.37387780    -0.01600
C166        C  0.50327957  0.18927699  0.34289162     0.03300
C167        C  0.62521144  0.18201492  0.34840264     0.38000
C168        C  0.42264008  0.14333628  0.38269288     0.38000
C169        C  0.47821813  0.21073401  0.31930353     0.36400
C170        C  0.56541511  0.11200263  0.40870385     0.36400
N171        N  0.45683151  0.22644010  0.30051519    -0.38400
N172        N  0.58145930  0.09012357  0.42621235    -0.38400
N173        N  0.38121927  0.13420491  0.38949400    -0.37900
N174        N  0.66537591  0.18738722  0.34206948    -0.37900
C175        C  0.78748884  0.35553299  0.33600459    -0.04500
C176        C  0.78863489  0.38105623  0.37199450    -0.01600
C177        C  0.82726724  0.39300661  0.40128013     0.03300
C178        C  0.86408281  0.37800355  0.39551886    -0.04500
C179        C  0.86021014  0.34868146  0.36148335    -0.01600
C180        C  0.82302881  0.33856631  0.33131564     0.03300
C181        C  0.74912652  0.39374121  0.37967668     0.38000
C182        C  0.89422249  0.32827893  0.35791233     0.38000
C183        C  0.82336056  0.31243023  0.29493435     0.36400
C184        C  0.82847517  0.42010257  0.43767069     0.36400
N185        N  0.82477129  0.29163431  0.26624008    -0.38400
N186        N  0.82871056  0.44085247  0.46698544    -0.38400
N187        N  0.92130972  0.31198134  0.35539823    -0.37900
N188        N  0.71745562  0.40356008  0.38586720    -0.37900
C189        C  0.78694322  0.34664863  0.16167092    -0.04500
C190        C  0.80966016  0.39101424  0.13754005    -0.01600
C191        C  0.84821580  0.39972932  0.10943271     0.03300
C192        C  0.86375032  0.36390000  0.10427545    -0.04500
C193        C  0.83987740  0.31860273  0.12667182    -0.01600
C194        C  0.80158071  0.30986414  0.15538376     0.03300
C195        C  0.79247556  0.42733267  0.14020305     0.38000
C196        C  0.85500798  0.28124212  0.12009786     0.38000
C197        C  0.77810044  0.26328831  0.17861914     0.36400
C198        C  0.87265170  0.44611631  0.08582236     0.36400
N199        N  0.75913072  0.22585308  0.19681398    -0.38400
N200        N  0.89254265  0.48297908  0.06693238    -0.38400
N201        N  0.86709938  0.25148513  0.11463235    -0.37900
N202        N  0.77929435  0.45674036  0.14161900    -0.37900
C203        C  0.64273822  0.43346199  0.15785472    -0.04500
C204        C  0.66566969  0.48627136  0.16209773    -0.01600
C205        C  0.65503739  0.51425573  0.13353381     0.03300
C206        C  0.62311557  0.48984304  0.09975698    -0.04500
C207        C  0.60237737  0.43744741  0.09448528    -0.01600
C208        C  0.61164068  0.40926546  0.12370429     0.03300
C209        C  0.69913576  0.51160671  0.19639488     0.38000
C210        C  0.57088170  0.41245487  0.05915476     0.38000
C211        C  0.58963435  0.35537812  0.11828125     0.36400
C212        C  0.67598057  0.56798566  0.13918377     0.36400
N213        N  0.57197084  0.31243217  0.11359022    -0.38400
N214        N  0.69194426  0.61073675  0.14361269    -0.38400
N215        N  0.54627573  0.39299019  0.03065677    -0.37900
N216        N  0.72612054  0.53182823  0.22361104    -0.37900
C217        C  0.63107115  0.42974894  0.33201242    -0.04500
C218        C  0.67219837  0.47811542  0.34394891    -0.01600
C219        C  0.66417407  0.50722428  0.37286053     0.03300
C220        C  0.61619175  0.48795647  0.39167423    -0.04500
C221        C  0.57588325  0.43957090  0.38162033    -0.01600
C222        C  0.58248185  0.41126778  0.35118476     0.03300
C223        C  0.72345849  0.49856166  0.32751180     0.38000
C224        C  0.52725295  0.41886727  0.40296910     0.38000
C225        C  0.53780902  0.36410121  0.33937218     0.36400
C226        C  0.70560797  0.55699904  0.38401918     0.36400
N227        N  0.50101251  0.32707772  0.33053586    -0.38400
N228        N  0.73846828  0.59660978  0.39328085    -0.38400
N229        N  0.48876379  0.40242156  0.42025033    -0.37900
N230        N  0.76453330  0.51508864  0.31471436    -0.37900
C231        C  0.20877369  0.56607373  0.16497067    -0.04500
C232        C  0.18687806  0.51270300  0.16371191    -0.01600
C233        C  0.14917532  0.48368854  0.13457644     0.03300
C234        C  0.13227489  0.50715001  0.10691014    -0.04500
C235        C  0.15545163  0.56010107  0.10636060    -0.01600
C236        C  0.19421506  0.58958723  0.13460663     0.03300
C237        C  0.20285111  0.48652578  0.19151419     0.38000
C238        C  0.13942966  0.58426715  0.07632751     0.38000
C239        C  0.22025292  0.64415300  0.13081641     0.36400
C240        C  0.12834112  0.42953769  0.13232767     0.36400
N241        N  0.24104716  0.68760589  0.12751473    -0.38400
N242        N  0.11202568  0.38646437  0.13034920    -0.38400
N243        N  0.12668351  0.60331656  0.05220897    -0.37900
N244        N  0.21524183  0.46428023  0.21255231    -0.37900
C245        C  0.21310960  0.56681864  0.34059585    -0.04500
C246        C  0.19005200  0.51364181  0.34224059    -0.01600
C247        C  0.14953105  0.48530749  0.36948351     0.03300
C248        C  0.13381853  0.51007386  0.39662333    -0.04500
C249        C  0.15838659  0.56309585  0.39654173    -0.01600
C250        C  0.19811761  0.59141188  0.36885799     0.03300
C251        C  0.20837544  0.48772747  0.31687112     0.38000
C252        C  0.14160079  0.58838700  0.42432450     0.38000
C253        C  0.22536281  0.64595741  0.37128841     0.36400
C254        C  0.12311049  0.43061022  0.36915598     0.36400
N255        N  0.24708154  0.68937776  0.37441961    -0.38400
N256        N  0.10151755  0.38696909  0.36875265    -0.38400
N257        N  0.12774541  0.60835213  0.44624607    -0.37900
N258        N  0.22337412  0.46618759  0.29803765    -0.37900
C259        C  0.49490045  0.62667747  0.10368682    -0.04500
C260        C  0.52063678  0.65357177  0.13894356    -0.01600
C261        C  0.49326685  0.66118285  0.16996219     0.03300
C262        C  0.44066647  0.64535771  0.16470244    -0.04500
C263        C  0.41569711  0.62092144  0.12816534    -0.01600
C264        C  0.44231922  0.61027594  0.09843948     0.03300
C265        C  0.57533317  0.67287529  0.14347269     0.38000
C266        C  0.36277323  0.60727961  0.12064669     0.38000
C267        C  0.41524201  0.58110977  0.06286430     0.36400
C268        C  0.51872742  0.68155964  0.20835040     0.36400
N269        N  0.39381147  0.55765863  0.03451801    -0.38400
N270        N  0.53998126  0.69684296  0.23886317    -0.38400
N271        N  0.32066132  0.59657584  0.11453215    -0.37900
N272        N  0.61896083  0.68836778  0.14698319    -0.37900
C273        C  0.44392507  0.65905899  0.34159835    -0.04500
C274        C  0.49786869  0.69076403  0.34398315    -0.01600
C275        C  0.52645614  0.67893496  0.37118554     0.03300
C276        C  0.50099830  0.63694677  0.39714531    -0.04500
C277        C  0.44694132  0.60803844  0.39730795    -0.01600
C278        C  0.41843566  0.61930551  0.36984137     0.03300
C279        C  0.52426677  0.73534093  0.31861702     0.38000
C280        C  0.42068349  0.56620479  0.42556753     0.38000
C281        C  0.36283714  0.59135864  0.37225574     0.36400
C282        C  0.58200751  0.70936369  0.37221488     0.36400
N283        N  0.31864131  0.56889169  0.37555353    -0.38400
N284        N  0.62635384  0.73346640  0.37294963    -0.38400
N285        N  0.39993165  0.53302481  0.44821530    -0.37900
N286        N  0.54591081  0.77134291  0.29886670    -0.37900
C287        C  0.35927796  0.79225790  0.16014002    -0.04500
C288        C  0.33517241  0.82163292  0.16340863    -0.01600
C289        C  0.34177607  0.85648447  0.13281073     0.03300
C290        C  0.37452674  0.86436534  0.09986000    -0.04500
C291        C  0.39868061  0.83543905  0.09639969    -0.01600
C292        C  0.39007195  0.79858752  0.12575969     0.03300
C293        C  0.30527598  0.81822912  0.19889389     0.38000
C294        C  0.43388780  0.84469666  0.06327236     0.38000
C295        C  0.41265499  0.76702046  0.11990629     0.36400
C296        C  0.31555205  0.88510021  0.13554687     0.36400
N297        N  0.43076287  0.74201054  0.11505560    -0.38400
N298        N  0.29469506  0.90792818  0.13776676    -0.38400
N299        N  0.46224259  0.85189839  0.03712147    -0.37900
N300        N  0.28136831  0.81594602  0.22701284    -0.37900
C301        C  0.36053641  0.80206927  0.33305844    -0.04500
C302        C  0.31984486  0.80990381  0.34480977    -0.01600
C303        C  0.32734457  0.84451586  0.37586363     0.03300
C304        C  0.37594478  0.87351643  0.39405181    -0.04500
C305        C  0.41711210  0.86756155  0.38150847    -0.01600
C306        C  0.40957640  0.83192090  0.35145635     0.03300
C307        C  0.27060022  0.78412928  0.32415774     0.38000
C308        C  0.46731952  0.89782679  0.40014730     0.38000
C309        C  0.45282634  0.82629729  0.34017713     0.36400
C310        C  0.28495605  0.85030720  0.38945084     0.36400
N311        N  0.48783865  0.82265873  0.33122883    -0.38400
N312        N  0.25124184  0.85491155  0.40058120    -0.38400
N313        N  0.50731002  0.92178348  0.41505062    -0.37900
N314        N  0.23112493  0.76372334  0.30794258    -0.37900
O315        O  0.28579297  0.59339886  0.80206193    -0.81000
C316        C  0.35235383  0.76005602  0.69548673     0.98400
O317        O  0.31379100  0.74116135  0.71835623    -0.70100
O318        O  0.25385375  0.64413388  0.70365533    -0.73700
Al319      Al  0.28292434  0.68210083  0.75147621     1.49000
C320        C  0.24353454  0.59941052  0.69755535     0.93600
O321        O  0.35984729  0.61366832  0.70535881    -0.79900
O322        O  0.42174280  0.70440143  0.79505588    -0.73500
Al323      Al  0.32354663  0.60769060  0.75339942     1.90100
O324        O  0.42457902  0.69006841  0.71290823    -0.72500
O325        O  0.38820778  0.76617953  0.78147327    -0.72400
O326        O  0.38545622  0.74692810  0.69928997    -0.78100
O327        O  0.30692981  0.72115565  0.79896353    -0.76300
O328        O  0.33551761  0.67068251  0.75087504    -1.12400
O329        O  0.23902026  0.62651974  0.78542090    -0.71600
C330        C  0.24775297  0.59869696  0.80828972     0.99100
C331        C  0.40366223  0.64827051  0.69478760     0.95500
Al332      Al  0.39952601  0.72244353  0.74744360     1.55600
O333        O  0.26327301  0.57977694  0.71970727    -0.76200
C334        C  0.35116864  0.75880021  0.80387282     0.99700
C335        C  0.41463507  0.66183694  0.80531086     0.94600
O336        O  0.38136203  0.62253271  0.78725553    -0.81500
O337        O  0.57941798  0.28022055  0.70463322    -0.81000
C338        C  0.75841352  0.35890881  0.80289163     0.98400
O339        O  0.73856393  0.31879510  0.78232129    -0.70100
O340        O  0.64198082  0.25760911  0.79871117    -0.73700
Al341      Al  0.67773212  0.28508548  0.74978788     1.49000
C342        C  0.59710662  0.24744018  0.80720505     0.93600
O343        O  0.61233560  0.36367451  0.79706926    -0.79900
O344        O  0.69299379  0.41491294  0.69985099    -0.73500
Al345      Al  0.60034288  0.32304556  0.75080413     1.90100
O346        O  0.68644482  0.42761498  0.78109085    -0.72500
O347        O  0.76000519  0.38689303  0.71361220    -0.72400
O348        O  0.74734723  0.39246660  0.79520497    -0.78100
O349        O  0.71491793  0.30618392  0.70029625    -0.76300
O350        O  0.66489790  0.33588191  0.74932041    -1.12400
O351        O  0.61940536  0.23943547  0.71822517    -0.71600
C352        C  0.58586958  0.24339659  0.69822611     0.99100
C353        C  0.64717851  0.40852574  0.80322021     0.95500
Al354      Al  0.71707697  0.39975336  0.74758150     1.55600
O355        O  0.57626291  0.26769100  0.78748231    -0.76200
C356        C  0.75201236  0.34954802  0.69241561     0.99700
C357        C  0.64828940  0.40630766  0.69292541     0.94600
O358        O  0.61082782  0.37569014  0.71437128    -0.81500
N359        N  0.92230946  0.39080807  0.00211790    -0.35800
N360        N  0.00108466  0.43860645  0.94033856    -0.56400
N361        N  0.07747752  0.47319276  0.00359045    -0.35800
N362        N  0.99996246  0.43380412  0.56189417    -0.56400
C363        C  0.89316665  0.37430780  0.96822281     0.27800
C364        C  0.89368087  0.37417271  0.53139161     0.27800
C365        C  0.10795446  0.48458406  0.97066133     0.27800
C366        C  0.10627382  0.47870733  0.53245447     0.27800
C367        C  0.95978012  0.42865046  0.91758143     0.36400
C368        C  0.04265085  0.46953826  0.91792083     0.36400
C369        C  0.95835119  0.42422061  0.58389502     0.36400
C370        C  0.04139320  0.46556283  0.58427213     0.36400
C371        C  0.84394764  0.33651566  0.97834361    -0.21100
C372        C  0.84593296  0.33522881  0.51932125    -0.21100
C373        C  0.15708042  0.49703108  0.98270991    -0.21100
C374        C  0.15434045  0.48809080  0.52053954    -0.21100
C375        C  0.97521980  0.45255379  0.88014401    -0.22100
C376        C  0.02782310  0.47809346  0.88023118    -0.22100
C377        C  0.97324254  0.44875060  0.62092285    -0.22100
C378        C  0.02597114  0.47532913  0.62104512    -0.22100
C379        C  0.90831693  0.39597927  0.92915960    -0.17500
C380        C  0.90718035  0.39206739  0.57136436    -0.17500
C381        C  0.09285658  0.48405636  0.57242585    -0.17500
C382        C  0.09383402  0.48895503  0.93064152    -0.17500
H383        H  0.81136186  0.31671614  0.95815883     0.15400
H384        H  0.81366410  0.31094396  0.53847524     0.15400
H385        H  0.19049094  0.50929222  0.96370151     0.15400
H386        H  0.18698672  0.49718787  0.53989460     0.15400
H387        H  0.95115616  0.45137667  0.85518376     0.13700
H388        H  0.05228401  0.50058623  0.85548772     0.13700
H389        H  0.94872431  0.44790826  0.64514986     0.13700
H390        H  0.05011411  0.49909018  0.64542698     0.13700
H391        H  0.95781450  0.42352652  0.00427336     0.27000
H392        H  0.04198655  0.47040964  0.00448456     0.27000
N393        N  0.60943427  0.53515307  0.99710376    -0.35800
N394        N  0.55624752  0.55719851  0.55920064    -0.56400
N395        N  0.53901791  0.61670412  0.99977023    -0.35800
N396        N  0.58227169  0.58533456  0.93542951    -0.56400
C397        C  0.61536760  0.51057130  0.52898987     0.27800
C398        C  0.63311582  0.53037895  0.96417508     0.27800
C399        C  0.51898793  0.62450132  0.53200859     0.27800
C400        C  0.53761380  0.64420460  0.96815669     0.27800
C401        C  0.56481106  0.52503452  0.58115309     0.36400
C402        C  0.52558007  0.56743287  0.58191682     0.36400
C403        C  0.59118557  0.55511525  0.91135683     0.36400
C404        C  0.55514279  0.60054855  0.91274483     0.36400
C405        C  0.65167275  0.49798574  0.51751748    -0.21100
C406        C  0.66958496  0.51818701  0.97630347    -0.21100
C407        C  0.51322850  0.66528112  0.52201578    -0.21100
C408        C  0.52918873  0.68183907  0.98228311    -0.21100
C409        C  0.54027860  0.51544604  0.61837551    -0.22100
C410        C  0.51517555  0.54227549  0.61879728    -0.22100
C411        C  0.57154240  0.55275376  0.87277925    -0.22100
C412        C  0.54863953  0.58163821  0.87364693    -0.22100
C413        C  0.59705347  0.50672260  0.56896966    -0.17500
C414        C  0.61780533  0.53052195  0.92367877    -0.17500
C415        C  0.53606781  0.63119102  0.92695626    -0.17500
C416        C  0.50988333  0.60191625  0.57076620    -0.17500
H417        H  0.67300055  0.48657079  0.53705570     0.15400
H418        H  0.69362111  0.51031424  0.95702199     0.15400
H419        H  0.50340261  0.68685743  0.54215042     0.15400
H420        H  0.52438166  0.70878751  0.96429649     0.15400
H421        H  0.54067806  0.49183189  0.64273062     0.13700
H422        H  0.49252470  0.54368691  0.64358597     0.13700
H423        H  0.57313633  0.53204050  0.84687386     0.13700
H424        H  0.52889609  0.58749128  0.84854037     0.13700
H425        H  0.57573829  0.53623114  0.99648171     0.27000
H426        H  0.53662041  0.58198379  0.99752393     0.27000
N427        N  0.45238819  0.07873605  0.50174743    -0.35800
N428        N  0.41916228  0.00056805  0.56295384    -0.56400
N429        N  0.38361148  0.92286818  0.50023051    -0.35800
N430        N  0.43263358  0.00065203  0.93582466    -0.56400
C431        C  0.47612269  0.10714540  0.53489081     0.27800
C432        C  0.47443180  0.10370895  0.96684533     0.27800
C433        C  0.38174070  0.89585806  0.53332742     0.27800
C434        C  0.37167167  0.89484061  0.96378822     0.27800
C435        C  0.43342336  0.04050547  0.58765138     0.36400
C436        C  0.39576483  0.95908417  0.58669743     0.36400
C437        C  0.46580178  0.04216562  0.91474622     0.36400
C438        C  0.42402204  0.96077151  0.91305046     0.36400
C439        C  0.51345018  0.15512661  0.52275763    -0.21100
C440        C  0.48136504  0.14999983  0.97870275    -0.21100
C441        C  0.37779069  0.85075571  0.52136013    -0.21100
C442        C  0.33379047  0.84651132  0.97476308    -0.21100
C443        C  0.41868880  0.02435097  0.62722636    -0.22100
C444        C  0.39455551  0.97267573  0.62660039    -0.22100
C445        C  0.47758178  0.02869067  0.87798981    -0.22100
C446        C  0.45087450  0.97689673  0.87685795    -0.22100
C447        C  0.46519987  0.09124910  0.57587051    -0.17500
C448        C  0.48296247  0.09194690  0.92745929    -0.17500
C449        C  0.39080803  0.91009592  0.92412035    -0.17500
C450        C  0.38220516  0.91003583  0.57410255    -0.17500
H451        H  0.53874693  0.18663164  0.54189597     0.15400
H452        H  0.49097888  0.18232494  0.95954997     0.15400
H453        H  0.37508909  0.82083568  0.54062414     0.15400
H454        H  0.31110384  0.81500081  0.95476422     0.15400
H455        H  0.42607581  0.04745462  0.65393823     0.13700
H456        H  0.37982454  0.94804538  0.65280404     0.13700
H457        H  0.50254254  0.05354588  0.85442677     0.13700
H458        H  0.45130342  0.95378532  0.85233112     0.13700
H459        H  0.42002488  0.04292805  0.50150205     0.27000
H460        H  0.38128024  0.95544746  0.50024485     0.27000
C461        C  0.49468690  0.12904054  0.60828914    -0.04500
C462        C  0.54377346  0.13816766  0.61932037    -0.01600
C463        C  0.57359075  0.17573599  0.64797985     0.03300
C464        C  0.55409269  0.20407416  0.66705834    -0.04500
C465        C  0.50416661  0.19415305  0.65593520    -0.01600
C466        C  0.47497209  0.15703671  0.62653877     0.03300
C467        C  0.56420646  0.10952915  0.60008660     0.38000
C468        C  0.48238894  0.22215300  0.67398832     0.38000
C469        C  0.42459390  0.14774711  0.61460793     0.36400
C470        C  0.62541643  0.18634793  0.65579063     0.36400
N471        N  0.38441315  0.14026607  0.60496142    -0.38400
N472        N  0.66669795  0.19433083  0.66149096    -0.38400
N473        N  0.46494239  0.24480758  0.68767348    -0.37900
N474        N  0.58045269  0.08680166  0.58459937    -0.37900
C475        C  0.56761824  0.20978817  0.83960969    -0.04500
C476        C  0.59340692  0.20272880  0.87293935    -0.01600
C477        C  0.56556429  0.16460633  0.90182075     0.03300
C478        C  0.51185320  0.13392763  0.89820924    -0.04500
C479        C  0.48571909  0.14183211  0.86614940    -0.01600
C480        C  0.51335152  0.17887674  0.83651641     0.03300
C481        C  0.64861416  0.23431006  0.87786896     0.38000
C482        C  0.43017855  0.11110319  0.86354349     0.38000
C483        C  0.48562828  0.18258646  0.80175777     0.36400
C484        C  0.59235592  0.15612444  0.93489855     0.36400
N485        N  0.46337490  0.18519093  0.77400043    -0.38400
N486        N  0.61385513  0.14943104  0.96118841    -0.38400
N487        N  0.38591742  0.08643983  0.86175607    -0.37900
N488        N  0.69264871  0.25909823  0.88182279    -0.37900
C489        C  0.79553465  0.36689801  0.83613449    -0.04500
C490        C  0.80006971  0.39683857  0.87040625    -0.01600
C491        C  0.83655184  0.40582003  0.90092768     0.03300
C492        C  0.86768086  0.38391099  0.89821996    -0.04500
C493        C  0.86238841  0.35291418  0.86509161    -0.01600
C494        C  0.82727205  0.34515106  0.83379427     0.03300
C495        C  0.76715670  0.41827298  0.87503236     0.38000
C496        C  0.89456952  0.33033169  0.86274369     0.38000
C497        C  0.82650611  0.31697302  0.79840316     0.36400
C498        C  0.84303536  0.43861173  0.93485535     0.36400
N499        N  0.82699287  0.29459124  0.77045768    -0.38400
N500        N  0.84846736  0.46471801  0.96196258    -0.38400
N501        N  0.92068982  0.31287498  0.86099244    -0.37900
N502        N  0.74127551  0.43569877  0.87915314    -0.37900
C503        C  0.78785246  0.35749771  0.65864869    -0.04500
C504        C  0.80723300  0.40142048  0.63406207    -0.01600
C505        C  0.84598254  0.41234632  0.60545821     0.03300
C506        C  0.86506959  0.37925966  0.60067672    -0.04500
C507        C  0.84397548  0.33415660  0.62322815    -0.01600
C508        C  0.80567458  0.32331076  0.65232135     0.03300
C509        C  0.78716783  0.43541128  0.63735480     0.38000
C510        C  0.86200559  0.29903261  0.61645494     0.38000
C511        C  0.78675490  0.27801482  0.67675235     0.36400
C512        C  0.86687764  0.45811375  0.58117180     0.36400
N513        N  0.77222772  0.24162961  0.69589599    -0.38400
N514        N  0.88368178  0.49467215  0.56194046    -0.38400
N515        N  0.87616302  0.27090327  0.61075438    -0.37900
N516        N  0.77202856  0.46326959  0.63917842    -0.37900
C517        C  0.63901697  0.43261684  0.65942917    -0.04500
C518        C  0.66229126  0.48566719  0.65969887    -0.01600
C519        C  0.64888437  0.51000046  0.62986916     0.03300
C520        C  0.61219025  0.48129061  0.59988850    -0.04500
C521        C  0.59013638  0.42846205  0.59892735    -0.01600
C522        C  0.60423701  0.40430980  0.62824909     0.03300
C523        C  0.69903045  0.51520389  0.69109159     0.38000
C524        C  0.55243119  0.39883636  0.56804743     0.38000
C525        C  0.58473320  0.35062099  0.62498047     0.36400
C526        C  0.67219015  0.56448426  0.63023768     0.36400
N527        N  0.56950244  0.30798499  0.62100918    -0.38400
N528        N  0.69048214  0.60789894  0.63053943    -0.38400
N529        N  0.52236161  0.37494242  0.54353457    -0.37900
N530        N  0.72854631  0.53923867  0.71586984    -0.37900
C531        C  0.64136067  0.43951650  0.83587072    -0.04500
C532        C  0.67948311  0.49125560  0.84194057    -0.01600
C533        C  0.67161313  0.52086393  0.87042385     0.03300
C534        C  0.62637652  0.49960111  0.89346360    -0.04500
C535        C  0.58905824  0.44837778  0.88864111    -0.01600
C536        C  0.59689359  0.41806813  0.86099004     0.03300
C537        C  0.72804520  0.51462753  0.82044763     0.38000
C538        C  0.54174518  0.42699820  0.91179592     0.38000
C539        C  0.55935448  0.36447985  0.85997008     0.36400
C540        C  0.71016173  0.57356759  0.87615841     0.36400
N541        N  0.52970235  0.32169443  0.85944809    -0.38400
N542        N  0.74091929  0.61556104  0.88071995    -0.38400
N543        N  0.50379611  0.41001019  0.92988540    -0.37900
N544        N  0.76726891  0.53365696  0.80402737    -0.37900
C545        C  0.20719415  0.56917036  0.66438761    -0.04500
C546        C  0.17287077  0.51672212  0.66941244    -0.01600
C547        C  0.13822817  0.48839392  0.63817347     0.03300
C548        C  0.13467351  0.51265225  0.60283532    -0.04500
C549        C  0.16906641  0.56486606  0.59754693    -0.01600
C550        C  0.20639952  0.59250938  0.62739612     0.03300
C551        C  0.17087712  0.49182211  0.70743083     0.38000
C552        C  0.16534684  0.59075708  0.56185258     0.38000
C553        C  0.24528922  0.64439272  0.61889659     0.36400
C554        C  0.10543093  0.43421049  0.64276664     0.36400
N555        N  0.27657456  0.68540714  0.61133089    -0.38400
N556        N  0.07937204  0.39103434  0.64663400    -0.38400
N557        N  0.16273851  0.61190452  0.53359064    -0.37900
N558        N  0.16854127  0.47153438  0.73771472    -0.37900
C559        C  0.21199681  0.57146889  0.84213034    -0.04500
C560        C  0.19499108  0.51995302  0.84972747    -0.01600
C561        C  0.15696496  0.49318568  0.87916561     0.03300
C562        C  0.13539868  0.51747374  0.90070390    -0.04500
C563        C  0.15360683  0.56917252  0.89439387    -0.01600
C564        C  0.19279302  0.59645718  0.86603782     0.03300
C565        C  0.21613124  0.49410206  0.82733406     0.38000
C566        C  0.13140720  0.59412287  0.91679179     0.38000
C567        C  0.21517194  0.65075982  0.86353766     0.36400
C568        C  0.13992446  0.44060986  0.88748518     0.36400
N569        N  0.23281700  0.69409239  0.86287245    -0.38400
N570        N  0.12656106  0.39879533  0.89444924    -0.38400
N571        N  0.11341633  0.61394650  0.93432689    -0.37900
N572        N  0.23346350  0.47353578  0.80997388    -0.37900
C573        C  0.48295312  0.61554895  0.60148258    -0.04500
C574        C  0.51116307  0.65048887  0.63217531    -0.01600
C575        C  0.48571121  0.66290154  0.66165555     0.03300
C576        C  0.43127066  0.63910868  0.66136888    -0.04500
C577        C  0.40327958  0.60446389  0.62982930    -0.01600
C578        C  0.42909050  0.59238016  0.60043631     0.03300
C579        C  0.56638043  0.67174477  0.63441968     0.38000
C580        C  0.34790965  0.58146007  0.62675818     0.38000
C581        C  0.40001293  0.55404533  0.57019690     0.36400
C582        C  0.51623236  0.69927352  0.69264234     0.36400
N583        N  0.37670404  0.52296356  0.54649529    -0.38400
N584        N  0.54133192  0.72874548  0.71685587    -0.38400
N585        N  0.30376922  0.56271671  0.62393819    -0.37900
N586        N  0.61022963  0.68775762  0.63638423    -0.37900
C587        C  0.44563322  0.65747633  0.83888433    -0.04500
C588        C  0.49887236  0.69294307  0.84309161    -0.01600
C589        C  0.52842440  0.68546241  0.87276510     0.03300
C590        C  0.50507381  0.64300202  0.89844118    -0.04500
C591        C  0.45175565  0.60954625  0.89614987    -0.01600
C592        C  0.42202384  0.61712241  0.86702906     0.03300
C593        C  0.52354749  0.73739834  0.81742166     0.38000
C594        C  0.42770682  0.56654563  0.92353154     0.38000
C595        C  0.36674900  0.58472159  0.86798131     0.36400
C596        C  0.58285752  0.72123614  0.87712606     0.36400
N597        N  0.32273819  0.55866572  0.87014367    -0.38400
N598        N  0.62625701  0.74967773  0.88105816    -0.38400
N599        N  0.40907854  0.53230585  0.94538412    -0.37900
N600        N  0.54341269  0.77356394  0.79769068    -0.37900
C601        C  0.35955750  0.79902862  0.66486419    -0.04500
C602        C  0.31667193  0.80030858  0.64804183    -0.01600
C603        C  0.32408517  0.83586366  0.61772311     0.03300
C604        C  0.37406687  0.87241224  0.60603152    -0.04500
C605        C  0.41684716  0.87280484  0.62363897    -0.01600
C606        C  0.40984114  0.83612877  0.65261232     0.03300
C607        C  0.26466803  0.76536925  0.66135567     0.38000
C608        C  0.46832639  0.91084013  0.61136424     0.38000
C609        C  0.45501960  0.83828948  0.67049199     0.36400
C610        C  0.28029430  0.83422628  0.59767842     0.36400
N611        N  0.49119276  0.84014869  0.68452052    -0.38400
N612        N  0.24543470  0.83253298  0.58128286    -0.38400
N613        N  0.50932807  0.94119121  0.60162983    -0.37900
N614        N  0.22308606  0.73801834  0.67198877    -0.37900
C615        C  0.35968245  0.79599016  0.83541260    -0.04500
C616        C  0.33312201  0.82286321  0.83350044    -0.01600
C617        C  0.34207616  0.85921849  0.86321077     0.03300
C618        C  0.37930203  0.87035098  0.89363300    -0.04500
C619        C  0.40658312  0.84427029  0.89499587    -0.01600
C620        C  0.39565385  0.80605640  0.86671283     0.03300
C621        C  0.29807022  0.81448122  0.80015540     0.38000
C622        C  0.44700292  0.85785271  0.92484421     0.38000
C623        C  0.41999029  0.77591972  0.87111652     0.36400
C624        C  0.31313539  0.88519624  0.86252532     0.36400
N625        N  0.43935916  0.75201309  0.87601659    -0.38400
N626        N  0.28975081  0.90563833  0.86199911    -0.38400
N627        N  0.47977420  0.86916624  0.94820735    -0.37900
N628        N  0.27043900  0.80807075  0.77337744    -0.37900
loop_ 
_geom_bond_atom_site_label_1 
_geom_bond_atom_site_label_2 
_geom_bond_distance 
_geom_bond_site_symmetry_2 
_ccdc_geom_bond_type 
O1           C16   1.257       .  A
O1           Al9   1.889       .  S
C2           O12   1.260       .  A
C2            O3   1.262       .  A
C2          C287   1.487       .  S
O3           Al5   1.902       .  S
O4            C6   1.259       .  A
O4           Al5   1.886       .  S
Al5          O13   1.899       .  S
Al5          O15   1.899       .  S
Al5          O14   1.786       .  S
C6           O19   1.259       .  A
C6          C231   1.499       .  S
O7           C17   1.255       .  A
O7           Al9   1.883       .  S
O8           C21   1.259       .  A
O8          Al18   1.885       .  S
Al9          O22   1.906       .  S
Al9          O19   1.899       .  S
Al9          O14   1.788       .  S
O10          C17   1.260       .  A
O10         Al18   1.919       .  S
O11          C20   1.259       .  A
O11         Al18   1.910       .  S
O12         Al18   1.876       .  S
O13          C20   1.259       .  A
O14         Al18   1.795       .  S
O15          C16   1.259       .  A
C16         C245   1.484       .  S
C17         C262   1.490       .  S
C20         C301   1.499       .  S
C21          O22   1.264       .  A
C21         C273   1.476       .  S
O23          C38   1.258       .  A
O23         Al31   1.885       .  S
C24          O34   1.259       .  A
C24          O25   1.260       .  A
C24         C175   1.487       .  S
O25         Al27   1.908       .  S
O26          C28   1.259       .  A
O26         Al27   1.887       .  S
Al27         O35   1.891       .  S
Al27         O37   1.909       .  S
Al27         O36   1.784       .  S
C28          O41   1.262       .  A
C28         C161   1.508       .  S
O29          C39   1.259       .  A
O29         Al31   1.894       .  S
O30          C43   1.258       .  A
O30         Al40   1.890       .  S
Al31         O44   1.915       .  S
Al31         O41   1.918       .  S
Al31         O36   1.785       .  S
O32          C39   1.263       .  A
O32         Al40   1.918       .  S
O33          C42   1.265       .  A
O33         Al40   1.920       .  S
O34         Al40   1.887       .  S
O35          C42   1.260       .  A
O36         Al40   1.784       .  S
O37          C38   1.261       .  A
C38         C150   1.475       .  S
C39         C217   1.511       .  S
C42         C189   1.492       .  S
C43          O44   1.262       .  A
C43         C203   1.480       .  S
N45          H77   1.040       .  S
N45          C49   1.348       .  A
N45         C364   1.348       .  A
N46          C53   1.350       .  A
N46          C54   1.348   1_655  A
N47          H78   1.040       .  S
N47          C51   1.349       .  A
N47         C366   1.351       .  A
N48          C55   1.351       .  A
N48          C56   1.351   1_655  A
C49          C57   1.386       .  A
C49          C65   1.407       .  A
C50         N359   1.350       .  A
C50          C66   1.411       .  A
C50          C58   1.387       .  A
C51          C59   1.388       .  A
C51          C68   1.412       .  A
C52         N361   1.348       .  A
C52          C67   1.406       .  A
C52          C60   1.386       .  A
C53          C65   1.412       .  A
C53          C61   1.386       .  A
C54          C68   1.410       .  A
C54          C62   1.386       .  A
C55          C63   1.386       .  A
C55          C66   1.413       .  A
C56          C64   1.386       .  A
C56          C67   1.411       .  A
C57         C372   1.374       .  A
C57          H69   1.082       .  S
C58         C371   1.375   1_554  A
C58          H70   1.082       .  S
C59         C374   1.378       .  A
C59          H71   1.083       .  S
C60         C373   1.373   1_554  A
C60          H72   1.083       .  S
C61          C62   1.375   1_655  A
C61          H73   1.082       .  S
C62          H74   1.082       .  S
C63          C64   1.372   1_655  A
C63          H75   1.082       .  S
C64          H76   1.082       .  S
C65         C178   1.493       .  S
C66         C192   1.490       .  S
C67         C234   1.486       .  S
C68         C248   1.485       .  S
N79         H111   1.038       .  S
N79          C84   1.350       .  A
N79         C397   1.350       .  A
N80          C87   1.349       .  A
N80          C88   1.349       .  A
N81         H112   1.037       .  S
N81          C86   1.347       .  A
N81         C399   1.351       .  A
N82          C89   1.351       .  A
N82          C90   1.350       .  A
C83         N393   1.352   1_554  A
C83          C91   1.387       .  A
C83          C99   1.413       .  A
C84         C100   1.408       .  A
C84          C92   1.385       .  A
C85         N395   1.352   1_554  A
C85          C93   1.387       .  A
C85         C102   1.413       .  A
C86         C101   1.408       .  A
C86          C94   1.388       .  A
C87          C99   1.411       .  A
C87          C95   1.386       .  A
C88         C102   1.412       .  A
C88          C96   1.387       .  A
C89          C97   1.386       .  A
C89         C100   1.411       .  A
C90          C98   1.387       .  A
C90         C101   1.411       .  A
C91         C406   1.377   1_554  A
C91         H103   1.082       .  S
C92         C405   1.374       .  A
C92         H104   1.082       .  S
C93         C408   1.378   1_554  A
C93         H105   1.082       .  S
C94         C407   1.375       .  A
C94         H106   1.083       .  S
C95          C96   1.375       .  A
C95         H107   1.082       .  S
C96         H108   1.082       .  S
C97          C98   1.373       .  A
C97         H109   1.082       .  S
C98         H110   1.082       .  S
C99         C206   1.495       .  S
C100        C220   1.490       .  S
C101        C276   1.482       .  S
C102        C259   1.495       .  S
N113        H145   1.036   1_556  S
N113        C117   1.348   1_556  A
N113        C432   1.348       .  A
N114        C121   1.348   1_565  A
N114        C122   1.348       .  A
N115        H146   1.036       .  S
N115        C119   1.349   1_556  A
N115        C434   1.349       .  A
N116        C123   1.349       .  A
N116        C124   1.352   1_545  A
C117        C125   1.387       .  A
C117        C133   1.407       .  A
C118        N427   1.352       .  A
C118        C134   1.416       .  A
C118        C126   1.388       .  A
C119        C127   1.386       .  A
C119        C136   1.407       .  A
C120        N429   1.353       .  A
C120        C135   1.412       .  A
C120        C128   1.387       .  A
C121        C133   1.405       .  A
C121        C129   1.386       .  A
C122        C136   1.408       .  A
C122        C130   1.386       .  A
C123        C131   1.387       .  A
C123        C134   1.412       .  A
C124        C132   1.385       .  A
C124        C135   1.411       .  A
C125        C440   1.377   1_554  A
C125        H137   1.082       .  S
C126        C439   1.372       .  A
C126        H138   1.082       .  S
C127        C442   1.377   1_554  A
C127        H139   1.083       .  S
C128        C441   1.372       .  A
C128        H140   1.082       .  S
C129        C130   1.371   1_545  A
C129        H141   1.082       .  S
C130        H142   1.082       .  S
C131        C132   1.371   1_545  A
C131        H143   1.082       .  S
C132        H144   1.082       .  S
C133        C147   1.480       .  S
C134        C164   1.490       .  S
C135        C304   1.494       .  S
C136        C290   1.486       .  S
C147        C148   1.408       .  A
C147        C152   1.406       .  A
C148        C149   1.403       .  A
C148        C153   1.453       .  S
C149        C150   1.412       .  A
C149        C156   1.448       .  S
C150        C151   1.415       .  A
C151        C152   1.408       .  A
C151        C154   1.449       .  S
C152        C155   1.451       .  S
C153        N160   1.157       .  T
C154        N159   1.157       .  T
C155        N157   1.157       .  T
C156        N158   1.156       .  T
C161        C162   1.427       .  A
C161        C166   1.429       .  A
C162        C163   1.408       .  A
C162        C167   1.452       .  S
C163        C164   1.406       .  A
C163        C170   1.454       .  S
C164        C165   1.403       .  A
C165        C166   1.411       .  A
C165        C168   1.453       .  S
C166        C169   1.449       .  S
C167        N174   1.158       .  T
C168        N173   1.157       .  T
C169        N171   1.157       .  T
C170        N172   1.157       .  T
C175        C176   1.415       .  A
C175        C180   1.418       .  A
C176        C177   1.408       .  A
C176        C181   1.453       .  S
C177        C178   1.415       .  A
C177        C184   1.452       .  S
C178        C179   1.408       .  A
C179        C180   1.408       .  A
C179        C182   1.453       .  S
C180        C183   1.448       .  S
C181        N188   1.157       .  T
C182        N187   1.157       .  T
C183        N185   1.156       .  T
C184        N186   1.157       .  T
C189        C190   1.417       .  A
C189        C194   1.422       .  A
C190        C191   1.406       .  A
C190        C195   1.451       .  S
C191        C192   1.408       .  A
C191        C198   1.453       .  S
C192        C193   1.407       .  A
C193        C194   1.413       .  A
C193        C196   1.451       .  S
C194        C197   1.451       .  S
C195        N202   1.157       .  T
C196        N201   1.157       .  T
C197        N199   1.158       .  T
C198        N200   1.157       .  T
C203        C204   1.413       .  A
C203        C208   1.411       .  A
C204        C205   1.411       .  A
C204        C209   1.451       .  S
C205        C206   1.412       .  A
C205        C212   1.451       .  S
C206        C207   1.413       .  A
C207        C208   1.409       .  A
C207        C210   1.451       .  S
C208        C211   1.450       .  S
C209        N216   1.157       .  T
C210        N215   1.157       .  T
C211        N213   1.157       .  T
C212        N214   1.157       .  T
C217        C218   1.429       .  A
C217        C222   1.427       .  A
C218        C219   1.412       .  A
C218        C223   1.451       .  S
C219        C220   1.404       .  A
C219        C226   1.451       .  S
C220        C221   1.405       .  A
C221        C222   1.409       .  A
C221        C224   1.455       .  S
C222        C225   1.448       .  S
C223        N230   1.157       .  T
C224        N229   1.157       .  T
C225        N227   1.156       .  T
C226        N228   1.157       .  T
C231        C232   1.425       .  A
C231        C236   1.422       .  A
C232        C233   1.408       .  A
C232        C237   1.447       .  S
C233        C234   1.403       .  A
C233        C240   1.453       .  S
C234        C235   1.409       .  A
C235        C236   1.407       .  A
C235        C238   1.453       .  S
C236        C239   1.453       .  S
C237        N244   1.156       .  T
C238        N243   1.157       .  T
C239        N241   1.158       .  T
C240        N242   1.157       .  T
C245        C246   1.416       .  A
C245        C250   1.413       .  A
C246        C247   1.409       .  A
C246        C251   1.447       .  S
C247        C248   1.406       .  A
C247        C254   1.451       .  S
C248        C249   1.408       .  A
C249        C250   1.405       .  A
C249        C252   1.451       .  S
C250        C253   1.449       .  S
C251        N258   1.156       .  T
C252        N257   1.157       .  T
C253        N255   1.156       .  T
C254        N256   1.157       .  T
C259        C260   1.409       .  A
C259        C264   1.411       .  A
C260        C261   1.409       .  A
C260        C265   1.452       .  S
C261        C262   1.416       .  A
C261        C268   1.446       .  S
C262        C263   1.417       .  A
C263        C264   1.410       .  A
C263        C266   1.452       .  S
C264        C267   1.450       .  S
C265        N272   1.157       .  T
C266        N271   1.157       .  T
C267        N269   1.157       .  T
C268        N270   1.155       .  T
C273        C274   1.415       .  A
C273        C278   1.412       .  A
C274        C275   1.408       .  A
C274        C279   1.449       .  S
C275        C276   1.407       .  A
C275        C282   1.450       .  S
C276        C277   1.410       .  A
C277        C278   1.402       .  A
C277        C280   1.453       .  S
C278        C281   1.451       .  S
C279        N286   1.157       .  T
C280        N285   1.157       .  T
C281        N283   1.157       .  T
C282        N284   1.157       .  T
C287        C288   1.421       .  A
C287        C292   1.418       .  A
C288        C289   1.405       .  A
C288        C293   1.451       .  S
C289        C290   1.407       .  A
C289        C296   1.453       .  S
C290        C291   1.410       .  A
C291        C292   1.406       .  A
C291        C294   1.450       .  S
C292        C295   1.453       .  S
C293        N300   1.157       .  T
C294        N299   1.156       .  T
C295        N297   1.157       .  T
C296        N298   1.157       .  T
C301        C302   1.421       .  A
C301        C306   1.423       .  A
C302        C303   1.412       .  A
C302        C307   1.451       .  S
C303        C304   1.407       .  A
C303        C310   1.451       .  S
C304        C305   1.408       .  A
C305        C306   1.409       .  A
C305        C308   1.453       .  S
C306        C309   1.451       .  S
C307        N314   1.157       .  T
C308        N313   1.157       .  T
C309        N311   1.157       .  T
C310        N312   1.157       .  T
O315        C330   1.256       .  A
O315       Al323   1.888       .  S
C316        O326   1.257       .  A
C316        O317   1.257       .  A
C316        C601   1.491       .  S
O317       Al319   1.905       .  S
O318        C320   1.263       .  A
O318       Al319   1.892       .  S
Al319       O327   1.881       .  S
Al319       O329   1.905       .  S
Al319       O328   1.790       .  S
C320        O333   1.266       .  A
C320        C545   1.492       .  S
O321        C331   1.257       .  A
O321       Al323   1.884       .  S
O322        C335   1.258       .  A
O322       Al332   1.889       .  S
Al323       O336   1.917       .  S
Al323       O333   1.920       .  S
Al323       O328   1.781       .  S
O324        C331   1.260       .  A
O324       Al332   1.906       .  S
O325        C334   1.263       .  A
O325       Al332   1.913       .  S
O326       Al332   1.887       .  S
O327        C334   1.259       .  A
O328       Al332   1.781       .  S
O329        C330   1.259       .  A
C330        C559   1.482       .  S
C331        C576   1.495       .  S
C334        C615   1.470       .  S
C335        O336   1.263       .  A
C335        C587   1.493       .  S
O337        C352   1.259       .  A
O337       Al345   1.900       .  S
C338        O348   1.257       .  A
C338        O339   1.263       .  A
C338        C489   1.492       .  S
O339       Al341   1.913       .  S
O340        C342   1.259       .  A
O340       Al341   1.886       .  S
Al341       O349   1.900       .  S
Al341       O351   1.910       .  S
Al341       O350   1.787       .  S
C342        O355   1.261       .  A
C342        C475   1.492       .  S
O343        C353   1.258       .  A
O343       Al345   1.889       .  S
O344        C357   1.257       .  A
O344       Al354   1.880       .  S
Al345       O358   1.902       .  S
Al345       O355   1.902       .  S
Al345       O350   1.783       .  S
O346        C353   1.258       .  A
O346       Al354   1.903       .  S
O347        C356   1.260       .  A
O347       Al354   1.903       .  S
O348       Al354   1.879       .  S
O349        C356   1.260       .  A
O350       Al354   1.792       .  S
O351        C352   1.260       .  A
C352        C464   1.505       .  S
C353        C531   1.508       .  S
C356        C503   1.486       .  S
C357        O358   1.261       .  A
C357        C517   1.471       .  S
N359        H391   1.037       .  S
N359        C363   1.349   1_554  A
N360        C367   1.348   1_455  A
N360        C368   1.349       .  A
N361        H392   1.031       .  S
N361        C365   1.351   1_554  A
N362        C369   1.350       .  A
N362        C370   1.350   1_655  A
C363        C371   1.387       .  A
C363        C379   1.413       .  A
C364        C380   1.406       .  A
C364        C372   1.387       .  A
C365        C373   1.387       .  A
C365        C382   1.409       .  A
C366        C381   1.414       .  A
C366        C374   1.387       .  A
C367        C379   1.412       .  A
C367        C375   1.388       .  A
C368        C382   1.408       .  A
C368        C376   1.385       .  A
C369        C377   1.385       .  A
C369        C380   1.410       .  A
C370        C378   1.387       .  A
C370        C381   1.414       .  A
C371        H383   1.083       .  S
C372        H384   1.082       .  S
C373        H385   1.082       .  S
C374        H386   1.082       .  S
C375        C376   1.370   1_655  A
C375        H387   1.082       .  S
C376        H388   1.082       .  S
C377        C378   1.374   1_655  A
C377        H389   1.082       .  S
C378        H390   1.082       .  S
C379        C492   1.487       .  S
C380        C506   1.485       .  S
C381        C548   1.498       .  S
C382        C562   1.486       .  S
N393        H425   1.034       .  S
N393        C398   1.350       .  A
N394        C401   1.346       .  A
N394        C402   1.348       .  A
N395        H426   1.035       .  S
N395        C400   1.351       .  A
N396        C403   1.351       .  A
N396        C404   1.350       .  A
C397        C405   1.388       .  A
C397        C413   1.412       .  A
C398        C414   1.409       .  A
C398        C406   1.386       .  A
C399        C407   1.386       .  A
C399        C416   1.410       .  A
C400        C415   1.410       .  A
C400        C408   1.386       .  A
C401        C413   1.408       .  A
C401        C409   1.387       .  A
C402        C416   1.407       .  A
C402        C410   1.385       .  A
C403        C411   1.385       .  A
C403        C414   1.409       .  A
C404        C412   1.387       .  A
C404        C415   1.411       .  A
C405        H417   1.082       .  S
C406        H418   1.082       .  S
C407        H419   1.082       .  S
C408        H420   1.082       .  S
C409        C410   1.372       .  A
C409        H421   1.082       .  S
C410        H422   1.082       .  S
C411        C412   1.373       .  A
C411        H423   1.082       .  S
C412        H424   1.082       .  S
C413        C520   1.484       .  S
C414        C534   1.490       .  S
C415        C590   1.489       .  S
C416        C573   1.488       .  S
N427        H459   1.039       .  S
N427        C431   1.355       .  A
N428        C435   1.351       .  A
N428        C436   1.349   1_545  A
N429        H460   1.038       .  S
N429        C433   1.350       .  A
N430        C437   1.349       .  A
N430        C438   1.348   1_545  A
C431        C439   1.387       .  A
C431        C447   1.415       .  A
C432        C448   1.407       .  A
C432        C440   1.386       .  A
C433        C441   1.388       .  A
C433        C450   1.411       .  A
C434        C449   1.410       .  A
C434        C442   1.388       .  A
C435        C447   1.410       .  A
C435        C443   1.385       .  A
C436        C450   1.411       .  A
C436        C444   1.387       .  A
C437        C445   1.386       .  A
C437        C448   1.409       .  A
C438        C446   1.386       .  A
C438        C449   1.408       .  A
C439        H451   1.082       .  S
C440        H452   1.082       .  S
C441        H453   1.082       .  S
C442        H454   1.082       .  S
C443        C444   1.372   1_545  A
C443        H455   1.082       .  S
C444        H456   1.082       .  S
C445        C446   1.374   1_545  A
C445        H457   1.082       .  S
C446        H458   1.082       .  S
C447        C461   1.496       .  S
C448        C478   1.487       .  S
C449        C618   1.483       .  S
C450        C604   1.484       .  S
C461        C462   1.407       .  A
C461        C466   1.407       .  A
C462        C463   1.409       .  A
C462        C467   1.453       .  S
C463        C464   1.423       .  A
C463        C470   1.449       .  S
C464        C465   1.424       .  A
C465        C466   1.415       .  A
C465        C468   1.451       .  S
C466        C469   1.450       .  S
C467        N474   1.157       .  T
C468        N473   1.157       .  T
C469        N471   1.157       .  T
C470        N472   1.156       .  T
C475        C476   1.420       .  A
C475        C480   1.422       .  A
C476        C477   1.409       .  A
C476        C481   1.453       .  S
C477        C478   1.409       .  A
C477        C484   1.452       .  S
C478        C479   1.406       .  A
C479        C480   1.407       .  A
C479        C482   1.452       .  S
C480        C483   1.451       .  S
C481        N488   1.158       .  T
C482        N487   1.157       .  T
C483        N485   1.157       .  T
C484        N486   1.157       .  T
C489        C490   1.421       .  A
C489        C494   1.420       .  A
C490        C491   1.408       .  A
C490        C495   1.451       .  S
C491        C492   1.408       .  A
C491        C498   1.453       .  S
C492        C493   1.406       .  A
C493        C494   1.406       .  A
C493        C496   1.453       .  S
C494        C497   1.448       .  S
C495        N502   1.157       .  T
C496        N501   1.157       .  T
C497        N499   1.156       .  T
C498        N500   1.157       .  T
C503        C504   1.419       .  A
C503        C508   1.417       .  A
C504        C505   1.407       .  A
C504        C509   1.452       .  S
C505        C506   1.408       .  A
C505        C512   1.453       .  S
C506        C507   1.407       .  A
C507        C508   1.409       .  A
C507        C510   1.451       .  S
C508        C511   1.449       .  S
C509        N516   1.157       .  T
C510        N515   1.157       .  T
C511        N513   1.157       .  T
C512        N514   1.157       .  T
C517        C518   1.411       .  A
C517        C522   1.410       .  A
C518        C519   1.407       .  A
C518        C523   1.450       .  S
C519        C520   1.411       .  A
C519        C526   1.451       .  S
C520        C521   1.409       .  A
C521        C522   1.403       .  A
C521        C524   1.452       .  S
C522        C525   1.448       .  S
C523        N530   1.157       .  T
C524        N529   1.157       .  T
C525        N527   1.156       .  T
C526        N528   1.157       .  T
C531        C532   1.429       .  A
C531        C536   1.426       .  A
C532        C533   1.411       .  A
C532        C537   1.452       .  S
C533        C534   1.404       .  A
C533        C540   1.452       .  S
C534        C535   1.407       .  A
C535        C536   1.409       .  A
C535        C538   1.453       .  S
C536        C539   1.453       .  S
C537        N544   1.158       .  T
C538        N543   1.157       .  T
C539        N541   1.158       .  T
C540        N542   1.157       .  T
C545        C546   1.417       .  A
C545        C550   1.416       .  A
C546        C547   1.410       .  A
C546        C551   1.449       .  S
C547        C548   1.411       .  A
C547        C554   1.452       .  S
C548        C549   1.413       .  A
C549        C550   1.410       .  A
C549        C552   1.451       .  S
C550        C553   1.451       .  S
C551        N558   1.156       .  T
C552        N557   1.157       .  T
C553        N555   1.157       .  T
C554        N556   1.157       .  T
C559        C560   1.416       .  A
C559        C564   1.416       .  A
C560        C561   1.408       .  A
C560        C565   1.450       .  S
C561        C562   1.408       .  A
C561        C568   1.451       .  S
C562        C563   1.408       .  A
C563        C564   1.405       .  A
C563        C566   1.452       .  S
C564        C567   1.451       .  S
C565        N572   1.157       .  T
C566        N571   1.157       .  T
C567        N569   1.157       .  T
C568        N570   1.157       .  T
C573        C574   1.406       .  A
C573        C578   1.408       .  A
C574        C575   1.409       .  A
C574        C579   1.452       .  S
C575        C576   1.422       .  A
C575        C582   1.449       .  S
C576        C577   1.421       .  A
C577        C578   1.409       .  A
C577        C580   1.452       .  S
C578        C581   1.452       .  S
C579        N586   1.157       .  T
C580        N585   1.157       .  T
C581        N583   1.157       .  T
C582        N584   1.156       .  T
C587        C588   1.421       .  A
C587        C592   1.416       .  A
C588        C589   1.413       .  A
C588        C593   1.449       .  S
C589        C590   1.407       .  A
C589        C596   1.450       .  S
C590        C591   1.407       .  A
C591        C592   1.406       .  A
C591        C594   1.453       .  S
C592        C595   1.448       .  S
C593        N600   1.157       .  T
C594        N599   1.157       .  T
C595        N597   1.156       .  T
C596        N598   1.157       .  T
C601        C602   1.423       .  A
C601        C606   1.421       .  A
C602        C603   1.408       .  A
C602        C607   1.452       .  S
C603        C604   1.405       .  A
C603        C610   1.452       .  S
C604        C605   1.407       .  A
C605        C606   1.405       .  A
C605        C608   1.453       .  S
C606        C609   1.452       .  S
C607        N614   1.158       .  T
C608        N613   1.157       .  T
C609        N611   1.158       .  T
C610        N612   1.157       .  T
C615        C616   1.412       .  A
C615        C620   1.410       .  A
C616        C617   1.407       .  A
C616        C621   1.451       .  S
C617        C618   1.409       .  A
C617        C624   1.450       .  S
C618        C619   1.409       .  A
C619        C620   1.404       .  A
C619        C622   1.451       .  S
C620        C623   1.449       .  S
C621        N628   1.157       .  T
C622        N627   1.157       .  T
C623        N625   1.156       .  T
C624        N626   1.157       .  T
