geometry optimzed in LAMMPS
_audit_creation_date              2020-12-01 
_audit_creation_method            'lammps2cif' 
_symmetry_space_group_name_H-M    'P1' 
_symmetry_Int_Tables_number       1 
_symmetry_cell_setting            triclinic 
loop_ 
_symmetry_equiv_pos_as_xyz 
  x,y,z 
_cell_length_a                    31.11906207 
_cell_length_b                    31.101515527663352 
_cell_length_c                    31.107510152178328 
_cell_angle_alpha                 90.68636634037202 
_cell_angle_beta                  90.54472063855324 
_cell_angle_gamma                 90.0562676363689 
loop_ 
_atom_site_label 
_atom_site_type_symbol 
_atom_site_fract_x 
_atom_site_fract_y 
_atom_site_fract_z 
_atom_site_charge 
Fe1        Fe  0.77857095  0.83285297  0.63076578     1.65800
Fe2        Fe  0.71067025  0.85905715  0.54959013     1.73200
Fe3        Fe  0.79883538  0.79634413  0.53058964     1.54400
O4          O  0.85589408  0.81041608  0.56338047    -0.80400
O5          O  0.68854884  0.80538701  0.51772444    -0.78700
O6          O  0.83986877  0.85365782  0.61822705    -0.82900
O7          O  0.79801675  0.76947446  0.63168484    -0.77700
O8          O  0.80671014  0.84984343  0.49283451    -0.79500
O9          O  0.67343782  0.84071325  0.60117674    -0.82200
C10         C  0.79689042  0.73710615  0.60630134     0.98500
C11         C  0.86704568  0.83392134  0.59532246     1.06000
O12         O  0.76259460  0.82966992  0.57022872    -1.11200
O13         O  0.72573698  0.91632850  0.57950812    -0.73700
O14         O  0.75963455  0.89605809  0.63916534    -0.77100
O15         O  0.79271120  0.74066706  0.56587356    -0.77800
C16         C  0.74014353  0.92405306  0.61694541     0.97400
O17         O  0.71917341  0.81188471  0.64827667    -0.75800
O18         O  0.74184249  0.88095082  0.49570556    -0.81000
C19         C  0.70748138  0.77938407  0.49278180     1.00100
C20         C  0.77899213  0.87689290  0.47952351     1.06000
O21         O  0.74803665  0.77568404  0.49198299    -0.76600
C22         C  0.68134182  0.82060395  0.63560031     1.04300
Fe23       Fe  0.83920741  0.86514492  0.27935998     1.65800
Fe24       Fe  0.77830998  0.95488761  0.29562408     1.73200
Fe25       Fe  0.85839718  0.95358893  0.22084670     1.54400
O26         O  0.91531662  0.92087924  0.23313288    -0.80400
O27         O  0.75134642  0.97921812  0.23968929    -0.78700
O28         O  0.90316739  0.87780421  0.28780000    -0.82900
O29         O  0.84829441  0.84803743  0.21622989    -0.77700
O30         O  0.87552821  0.00243625  0.26478591    -0.79500
O31         O  0.73619396  0.90334578  0.29063648    -0.82200
C32         C  0.84451895  0.86563854  0.17990738     0.98500
C33         C  0.92773483  0.89267423  0.25953448     1.06000
O34         O  0.82500313  0.92462923  0.26538225    -1.11200
O35         O  0.79841408  0.93506883  0.35592718    -0.73700
O36         O  0.83305715  0.87362254  0.34401258    -0.77100
O37         O  0.84210202  0.90623958  0.17522281    -0.77800
C38         C  0.81764398  0.90165990  0.36904334     0.97400
O39         O  0.77626184  0.84639878  0.27264425    -0.75800
O40         O  0.81580127  0.00915627  0.30423750    -0.81000
C41         C  0.76842199  0.99466776  0.20638995     1.00100
C42         C  0.85283929  0.02196000  0.29308671     1.06000
O43         O  0.80787905  0.98983453  0.19814757    -0.76600
C44         C  0.74033710  0.86384499  0.28052701     1.04300
Fe45       Fe  0.13053935  0.77929931  0.66068275     1.65800
Fe46       Fe  0.03352967  0.80398102  0.70489860     1.73200
Fe47       Fe  0.04388584  0.71817934  0.63425175     1.54400
O48         O  0.08265640  0.72539912  0.58074161    -0.80400
O49         O  0.00027733  0.75289819  0.73114847    -0.78700
O50         O  0.12910690  0.77785499  0.59517374    -0.82900
O51         O  0.14623905  0.71508300  0.66410413    -0.77700
O52         O  0.99857010  0.75837938  0.60719567    -0.79500
O53         O  0.07734069  0.80085174  0.75621603    -0.82200
C54         C  0.12716709  0.67906424  0.66676846     0.98500
C55         C  0.11345717  0.74964920  0.57007190     1.06000
O56         O  0.06910645  0.76731531  0.66676017    -1.11200
O57         O  0.06069340  0.86171587  0.68605802    -0.73700
O58         O  0.12382208  0.84505005  0.65751021    -0.77100
O59         O  0.08725361  0.67440099  0.65937064    -0.77800
C60         C  0.09630958  0.87237834  0.66975345     0.97400
O61         O  0.13920603  0.78191777  0.72532615    -0.75800
O62         O  0.98703764  0.81033985  0.65661917    -0.81000
C63         C  0.98856843  0.71618334  0.71731640     1.00100
C64         C  0.97822112  0.79119893  0.62100327     1.06000
O65         O  0.00151942  0.70072656  0.68187285    -0.76600
C66         C  0.11719056  0.79144079  0.75795704     1.04300
Fe67       Fe  0.21892234  0.19308287  0.35043443     1.65800
Fe68       Fe  0.19029574  0.21975412  0.45240673     1.73200
Fe69       Fe  0.27141860  0.14647016  0.43358139     1.54400
O70         O  0.25666417  0.09875053  0.38727484    -0.80400
O71         O  0.24304934  0.24362317  0.48435307    -0.78700
O72         O  0.21311789  0.12863281  0.33857217    -0.82900
O73         O  0.28338639  0.19136783  0.33693810    -0.77700
O74         O  0.23012796  0.11754824  0.47639620    -0.79500
O75         O  0.18946832  0.27574652  0.41462268    -0.82200
C76         C  0.31838395  0.18344075  0.35640389     0.98500
C77         C  0.23407849  0.09691701  0.35269933     1.06000
O78         O  0.22672249  0.18599639  0.41231842    -1.11200
O79         O  0.13405672  0.19935527  0.42387963    -0.73700
O80         O  0.15303381  0.19587496  0.35491077    -0.77100
O81         O  0.31963868  0.16941975  0.39442245    -0.77800
C82         C  0.12500085  0.19589963  0.38420618     0.97400
O83         O  0.22532786  0.25802248  0.35552878    -0.75800
O84         O  0.18529975  0.16963607  0.49680011    -0.81000
C85         C  0.27891402  0.22727093  0.49462815     1.00100
C86         C  0.20157383  0.13231680  0.50142840     1.06000
O87         O  0.29185141  0.19085197  0.48045075    -0.76600
C88         C  0.20752842  0.28557864  0.37948078     1.04300
Fe89       Fe  0.16492695  0.13977361  0.70059166     1.65800
Fe90       Fe  0.13857597  0.06291304  0.77146105     1.73200
Fe91       Fe  0.20025698  0.03911956  0.68411888     1.54400
O92         O  0.18681267  0.07124378  0.62544075    -0.80400
O93         O  0.19194374  0.03167924  0.79567151    -0.78700
O94         O  0.13997925  0.12268575  0.64152289    -0.82900
O95         O  0.22705803  0.13858477  0.67694389    -0.77700
O96         O  0.14645156  0.00078015  0.67632977    -0.79500
O97         O  0.15838299  0.11823013  0.80585228    -0.82200
C98         C  0.25967460  0.11446008  0.68228251     0.98500
C99         C  0.16177683  0.10185204  0.61411090     1.06000
O100        O  0.16752437  0.08032835  0.71892531    -1.11200
O101        O  0.08118630  0.09216015  0.75509718    -0.73700
O102        O  0.10323049  0.15191460  0.72381857    -0.77100
O103        O  0.25614272  0.07484782  0.69096186    -0.77800
C104        C  0.07472300  0.13050158  0.74332326     0.97400
O105        O  0.19069932  0.15964540  0.75746270    -0.75800
O106        O  0.11645506  0.00614968  0.74159160    -0.81000
C107        C  0.21611390  0.00412099  0.77785437     1.00100
C108        C  0.12052430  0.98764799  0.70488807     1.06000
O109        O  0.21965128  0.00159870  0.73703542    -0.76600
C110        C  0.18086321  0.15091842  0.79571211     1.04300
Fe111      Fe  0.86338278  0.20966603  0.31842115     1.65800
Fe112      Fe  0.93409392  0.29096902  0.34168883     1.73200
Fe113      Fe  0.96264423  0.20651601  0.27623989     1.54400
O114        O  0.94026637  0.14523988  0.28800677    -0.80400
O115        O  0.96717318  0.31741410  0.29094059    -0.78700
O116        O  0.88733996  0.15002255  0.33503569    -0.82900
O117        O  0.86227418  0.19148296  0.25442720    -0.77700
O118        O  0.00294417  0.20352933  0.32835215    -0.79500
O119        O  0.87885539  0.32067925  0.31817853    -0.82200
C120        C  0.88466143  0.19702410  0.22088136     0.98500
C121        C  0.91220964  0.12789755  0.31131727     1.06000
O122        O  0.92007777  0.23604067  0.31248877    -1.11200
O123        O  0.90284704  0.27648681  0.39800224    -0.73700
O124        O  0.85414244  0.22608360  0.38291480    -0.77100
O125        O  0.92376349  0.20845342  0.22239606    -0.77800
C126        C  0.87053500  0.25414829  0.40817684     0.97400
O127        O  0.83497078  0.26580784  0.30066287    -0.75800
O128        O  0.99034180  0.26406638  0.36670004    -0.81000
C129        C  0.99143460  0.30111962  0.26276859     1.00100
C130        C  0.01186378  0.22988190  0.35885227     1.06000
O131        O  0.99322231  0.26110491  0.25585738    -0.76600
C132        C  0.84373010  0.30560573  0.30286366     1.04300
Fe133      Fe  0.71455965  0.33522845  0.63137853     1.65800
Fe134      Fe  0.69221358  0.29306220  0.53134228     1.73200
Fe135      Fe  0.77677035  0.36418076  0.54717157     1.54400
O136        O  0.76524164  0.41839051  0.58551797    -0.80400
O137        O  0.74448837  0.26844727  0.49789712    -0.78700
O138        O  0.71721311  0.40112323  0.63486608    -0.82900
O139        O  0.77809839  0.33015780  0.64883603    -0.77700
O140        O  0.73830018  0.38960857  0.49915880    -0.79500
O141        O  0.69602261  0.24042249  0.57238877    -0.82200
C142        C  0.81484619  0.33114904  0.63150168     0.98500
C143        C  0.74229267  0.42790275  0.61785457     1.06000
O144        O  0.72762474  0.33092898  0.56974796    -1.11200
O145        O  0.63354484  0.30987177  0.55883818    -0.73700
O146        O  0.64906281  0.33975686  0.62251924    -0.77100
O147        O  0.82022074  0.34152386  0.59261470    -0.77800
C148        C  0.62224103  0.32632821  0.59458450     0.97400
O149        O  0.71118864  0.27013252  0.63648880    -0.75800
O150        O  0.68517256  0.34210786  0.48629315    -0.81000
C151        C  0.78230351  0.28115197  0.48988461     1.00100
C152        C  0.70560216  0.37662942  0.47772724     1.06000
O153        O  0.79767357  0.31561189  0.50601734    -0.76600
C154        C  0.70356636  0.23783447  0.61257956     1.04300
Fe155      Fe  0.66723296  0.37009587  0.27320492     1.65800
Fe156      Fe  0.63887782  0.45258305  0.20862870     1.73200
Fe157      Fe  0.70214039  0.46991054  0.29820722     1.54400
O158        O  0.69063417  0.43488346  0.35410582    -0.80400
O159        O  0.69064986  0.48858286  0.18847731    -0.78700
O160        O  0.64752781  0.38095533  0.33536857    -0.82900
O161        O  0.73066809  0.36994190  0.29183477    -0.77700
O162        O  0.64767919  0.50576402  0.30894336    -0.79500
O163        O  0.65898328  0.40247725  0.16818842    -0.82200
C164        C  0.76263922  0.39543287  0.29224835     0.98500
C165        C  0.66733919  0.40283433  0.36379106     1.06000
O166        O  0.66932337  0.43091651  0.25962596    -1.11200
O167        O  0.58257023  0.41952897  0.22063224    -0.73700
O168        O  0.60421772  0.36121126  0.25522923    -0.77100
O169        O  0.75855527  0.43591880  0.28942590    -0.77800
C170        C  0.57580490  0.38221817  0.23506177     0.97400
O171        O  0.68605108  0.35308573  0.21244037    -0.75800
O172        O  0.61497111  0.50397378  0.24425333    -0.81000
C173        C  0.71526147  0.51398949  0.20928670     1.00100
C174        C  0.61923186  0.51882679  0.28244906     1.06000
O175        O  0.72012185  0.51181285  0.24976981    -0.76600
C176        C  0.67633357  0.36610804  0.17499805     1.04300
Fe177      Fe  0.32246285  0.64388164  0.72432485     1.65800
Fe178      Fe  0.28172408  0.54496627  0.69707216     1.73200
Fe179      Fe  0.35104320  0.55782295  0.78369557     1.54400
O180        O  0.40354595  0.59787688  0.77669695    -0.80400
O181        O  0.25584314  0.51072673  0.74722242    -0.78700
O182        O  0.38847901  0.64558965  0.72620670    -0.82900
O183        O  0.31871167  0.65910237  0.78884039    -0.77700
O184        O  0.37940526  0.51339082  0.74324103    -0.79500
O185        O  0.22892853  0.58647136  0.70013837    -0.82200
C186        C  0.31723879  0.63996001  0.82466999     0.98500
C187        C  0.41396817  0.62930930  0.75342774     1.06000
O188        O  0.31831374  0.58204818  0.73483151    -1.11200
O189        O  0.30018024  0.57307700  0.64027798    -0.73700
O190        O  0.32563059  0.63772648  0.65837879    -0.77100
O191        O  0.32535929  0.60022967  0.82846016    -0.77800
C192        C  0.31454878  0.60976713  0.63050027     0.97400
O193        O  0.25720071  0.64932602  0.72181639    -0.75800
O194        O  0.33153500  0.50050239  0.69015792    -0.81000
C195        C  0.26930234  0.50020649  0.78414619     1.00100
C196        C  0.36705476  0.49299364  0.70964063     1.06000
O197        O  0.30409255  0.51452697  0.80014535    -0.76600
C198        C  0.22550157  0.62599481  0.71086082     1.04300
Fe199      Fe  0.35672021  0.30018226  0.66499065     1.65800
Fe200      Fe  0.43169373  0.22564925  0.64063018     1.73200
Fe201      Fe  0.45774509  0.31418686  0.70087138     1.54400
O202        O  0.42785384  0.37287242  0.68730104    -0.80400
O203        O  0.45990385  0.20285149  0.69562578    -0.78700
O204        O  0.37548073  0.35811785  0.64063192    -0.82900
O205        O  0.35783288  0.32377859  0.72788603    -0.77700
O206        O  0.49565657  0.31919992  0.64704244    -0.79500
O207        O  0.37468946  0.19359906  0.65840953    -0.82200
C208        C  0.38262216  0.31855202  0.76027131     0.98500
C209        C  0.39760024  0.38485892  0.66230308     1.06000
O210        O  0.41547792  0.27978700  0.66849676    -1.11200
O211        O  0.40480616  0.24169915  0.58255994    -0.73700
O212        O  0.34619722  0.27702203  0.60292966    -0.77100
O213        O  0.42229656  0.31003385  0.75650001    -0.77800
C214        C  0.36740137  0.25577321  0.57515061     0.97400
O215        O  0.33410228  0.24434584  0.68916183    -0.75800
O216        O  0.49008778  0.25234146  0.61968785    -0.81000
C217        C  0.48830675  0.22071700  0.71908289     1.00100
C218        C  0.50873300  0.28904542  0.62231639     1.06000
O219        O  0.49332203  0.26124972  0.72071033    -0.76600
C220        C  0.34146840  0.20551993  0.67926911     1.04300
Fe221      Fe  0.62686438  0.71314165  0.32304787     1.65800
Fe222      Fe  0.52499587  0.69484979  0.29094562     1.73200
Fe223      Fe  0.54929279  0.78327433  0.35235348     1.54400
O224        O  0.58021113  0.76701085  0.40879075    -0.80400
O225        O  0.48725724  0.74608499  0.27217396    -0.78700
O226        O  0.63852189  0.73332485  0.38521097    -0.82900
O227        O  0.64604409  0.77134235  0.30043667    -0.77700
O228        O  0.49452539  0.75381152  0.37572964    -0.79500
O229        O  0.55824540  0.70020755  0.23395324    -0.82200
C230        C  0.63598834  0.80947124  0.31117188     0.98500
C231        C  0.61766978  0.75218046  0.41466854     1.06000
O232        O  0.56698531  0.73070249  0.32223777    -1.11200
O233        O  0.55655649  0.63762923  0.30367372    -0.73700
O234        O  0.61213989  0.65354064  0.34615465    -0.77100
O235        O  0.60259000  0.81841047  0.33278885    -0.77800
C236        C  0.58814331  0.62646108  0.32714832     0.97400
O237        O  0.62464780  0.69166250  0.26003793    -0.75800
O238        O  0.48952711  0.68794826  0.34611728    -0.81000
C239        C  0.48991271  0.78670106  0.27466159     1.00100
C240        C  0.47777898  0.71647549  0.37325981     1.06000
O241        O  0.51662365  0.80584324  0.29925670    -0.76600
C242        C  0.59828256  0.69474328  0.22875101     1.04300
Fe243      Fe  0.28911177  0.67722570  0.36577116     1.65800
Fe244      Fe  0.21474724  0.65018357  0.43810830     1.73200
Fe245      Fe  0.29963777  0.71425790  0.46638089     1.54400
O246        O  0.35898931  0.70006521  0.43842043    -0.80400
O247        O  0.18857676  0.70373106  0.46650698    -0.78700
O248        O  0.34544296  0.65124550  0.38734743    -0.82900
O249        O  0.31450561  0.73880127  0.36860371    -0.77700
O250        O  0.30555700  0.66153486  0.50497187    -0.79500
O251        O  0.18385070  0.66809504  0.38036209    -0.82200
C252        C  0.30755176  0.77197769  0.39181199     0.98500
C253        C  0.37157656  0.67331619  0.40980355     1.06000
O254        O  0.26735999  0.68046229  0.42367702    -1.11200
O255        O  0.23428747  0.59283071  0.41092435    -0.73700
O256        O  0.26590809  0.61624354  0.35215793    -0.77100
O257        O  0.29529555  0.76939975  0.43040112    -0.77800
C258        C  0.24707179  0.58698876  0.37282981     0.97400
O259        O  0.23371396  0.70289071  0.34260792    -0.75800
O260        O  0.24118184  0.62981550  0.49690941    -0.81000
C261        C  0.20479848  0.72946606  0.49398594     1.00100
C262        C  0.27708746  0.63489443  0.51675882     1.06000
O263        O  0.24511345  0.73374612  0.49940791    -0.76600
C264        C  0.19530667  0.69096767  0.34849110     1.04300
Fe265      Fe  0.81658568  0.64226713  0.79118642     1.65800
Fe266      Fe  0.83819871  0.56589146  0.71630503     1.73200
Fe267      Fe  0.77418739  0.54405101  0.80183501     1.54400
O268        O  0.78894264  0.57378310  0.86133474    -0.80400
O269        O  0.78399971  0.53699159  0.69092376    -0.78700
O270        O  0.84074657  0.62104515  0.84878889    -0.82900
O271        O  0.75499287  0.64414953  0.81592441    -0.77700
O272        O  0.82531186  0.50183609  0.80858415    -0.79500
O273        O  0.81974348  0.62249192  0.68430058    -0.82200
C274        C  0.72087911  0.62382191  0.80601265     0.98500
C275        C  0.81654335  0.60143433  0.87460598     1.06000
O276        O  0.81020640  0.58369179  0.76947683    -1.11200
O277        O  0.89687838  0.59279672  0.73283599    -0.73700
O278        O  0.87830190  0.65213728  0.76816833    -0.77100
O279        O  0.72122735  0.58432897  0.79496793    -0.77800
C280        C  0.90525289  0.63036892  0.74668658     0.97400
O281        O  0.79183089  0.66536709  0.73534420    -0.75800
O282        O  0.85811109  0.50784294  0.74473476    -0.81000
C283        C  0.75842276  0.51056581  0.70771362     1.00100
C284        C  0.85214326  0.48862945  0.78050266     1.06000
O285        O  0.75341103  0.50858485  0.74813518    -0.76600
C286        C  0.79959847  0.65635578  0.69634236     1.04300
Fe287      Fe  0.85071673  0.28437906  0.83011011     1.65800
Fe288      Fe  0.94857541  0.30735544  0.78884158     1.73200
Fe289      Fe  0.93629410  0.22178565  0.85713986     1.54400
O290        O  0.90347220  0.23472786  0.91373970    -0.80400
O291        O  0.98892834  0.25781011  0.76931038    -0.78700
O292        O  0.84603401  0.27297384  0.89510969    -0.82900
O293        O  0.83451741  0.22174057  0.81655558    -0.77700
O294        O  0.98666462  0.25964031  0.87915888    -0.79500
O295        O  0.91020188  0.29573770  0.73477260    -0.82200
C296        C  0.85105704  0.18485418  0.82207708     0.98500
C297        C  0.86739491  0.25162030  0.92240115     1.06000
O298        O  0.91199837  0.27112477  0.82568728    -1.11200
O299        O  0.91441998  0.36430344  0.79976951    -0.73700
O300        O  0.86050259  0.34907036  0.84327512    -0.77100
O301        O  0.88825120  0.17934766  0.83806204    -0.77800
C302        C  0.88221381  0.37580703  0.82193971     0.97400
O303        O  0.84555364  0.29534646  0.76544350    -0.75800
O304        O  0.98952991  0.32041048  0.84073895    -0.81000
C305        C  0.99344001  0.21809292  0.77677612     1.00100
C306        C  0.00281128  0.29630131  0.87113676     1.06000
O307        O  0.97222766  0.19930520  0.80564928    -0.76600
C308        C  0.86934160  0.29510144  0.73261148     1.04300
Fe309      Fe  0.77964112  0.69113765  0.13310850     1.65800
Fe310      Fe  0.79375070  0.72193925  0.03168118     1.73200
Fe311      Fe  0.70808425  0.66017662  0.05729148     1.54400
O312        O  0.72797721  0.60386266  0.08547802    -0.80400
O313        O  0.74032878  0.73838972  0.99455946    -0.78700
O314        O  0.75745582  0.62905132  0.14607551    -0.82900
O315        O  0.72267561  0.71659786  0.15245457    -0.77700
O316        O  0.73583098  0.63844296  0.99971263    -0.79500
O317        O  0.78629478  0.77912016  0.06506658    -0.82200
C318        C  0.68499770  0.70258183  0.14550786     0.98500
C319        C  0.74036661  0.59869600  0.12400356     1.06000
O320        O  0.76027937  0.69077858  0.07390082    -1.11200
O321        O  0.85244453  0.71178127  0.06397447    -0.73700
O322        O  0.83778264  0.66594730  0.11601256    -0.77100
O323        O  0.67529210  0.67815325  0.11356658    -0.77800
C324        C  0.86435795  0.68765071  0.09471903     0.97400
O325        O  0.80374014  0.75388485  0.12960339    -0.75800
O326        O  0.80211239  0.66624826  0.99583537    -0.81000
C327        C  0.69988655  0.73716497  0.99998824     1.00100
C328        C  0.77300152  0.64031941  0.98260928     1.06000
O329        O  0.68267770  0.71373559  0.02808724    -0.76600
C330        C  0.79867078  0.78494943  0.10361635     1.04300
Fe331      Fe  0.16700569  0.36812145  0.21869708     1.65800
Fe332      Fe  0.21333081  0.46278866  0.19267569     1.73200
Fe333      Fe  0.13441209  0.45922291  0.26964392     1.54400
O334        O  0.07815672  0.42868062  0.25020823    -0.80400
O335        O  0.23191879  0.50260952  0.24328428    -0.78700
O336        O  0.10200029  0.36480742  0.22890958    -0.82900
O337        O  0.17884069  0.35833894  0.28283031    -0.77700
O338        O  0.12002270  0.50943788  0.22717016    -0.79500
O339        O  0.26423972  0.42304982  0.20800804    -0.82200
C340        C  0.16510061  0.37640910  0.31686792     0.98500
C341        C  0.07183819  0.38946177  0.24059648     1.06000
O342        O  0.17132045  0.43032539  0.22692981    -1.11200
O343        O  0.20086751  0.42717698  0.13709134    -0.73700
O344        O  0.15589499  0.37395931  0.15343378    -0.77100
O345        O  0.14491104  0.41209960  0.31663512    -0.77800
C346        C  0.17671933  0.39576262  0.12627860     0.97400
O347        O  0.23126588  0.35966089  0.20908192    -0.75800
O348        O  0.16746901  0.50622551  0.17356784    -0.81000
C349        C  0.21934021  0.50936358  0.28141994     1.00100
C350        C  0.13488193  0.52275090  0.19147882     1.06000
O351        O  0.18539565  0.49282541  0.29624647    -0.76600
C352        C  0.26486406  0.38238600  0.20923077     1.04300
Fe353      Fe  0.12122453  0.70762103  0.17193163     1.65800
Fe354      Fe  0.05182679  0.79000570  0.15383428     1.73200
Fe355      Fe  0.02255018  0.70546830  0.21547746     1.54400
O356        O  0.04478863  0.64403198  0.20244690    -0.80400
O357        O  0.02777776  0.81618881  0.20957479    -0.78700
O358        O  0.09531532  0.64896053  0.15302625    -0.82900
O359        O  0.12329543  0.68820501  0.23566643    -0.77700
O360        O  0.98154361  0.70231647  0.16327467    -0.79500
O361        O  0.11081752  0.81726392  0.17143068    -0.82200
C362        C  0.10157736  0.69567354  0.26956489     0.98500
C363        C  0.07204759  0.62671980  0.17776111     1.06000
O364        O  0.06528963  0.73453566  0.17996079    -1.11200
O365        O  0.07533821  0.77317094  0.09444735    -0.73700
O366        O  0.12851924  0.72721530  0.10791854    -0.77100
O367        O  0.06259043  0.70769384  0.26857192    -0.77800
C368        C  0.10933389  0.75384692  0.08340628     0.97400
O369        O  0.15199227  0.76204576  0.19168452    -0.75800
O370        O  0.99153906  0.76701403  0.13353005    -0.81000
C371        C  0.00081843  0.80094263  0.23534223     1.00100
C372        C  0.97110350  0.73148883  0.13669456     1.06000
O373        O  0.99310072  0.76106988  0.23725850    -0.76600
C374        C  0.14548145  0.80183576  0.18694344     1.04300
Fe375      Fe  0.20047377  0.32733656  0.85758647     1.65800
Fe376      Fe  0.27347192  0.35282238  0.93439637     1.73200
Fe377      Fe  0.18447374  0.29455184  0.95846233     1.54400
O378        O  0.12644503  0.30934964  0.92733623    -0.80400
O379        O  0.29618492  0.29763480  0.96323720    -0.78700
O380        O  0.14256497  0.35354649  0.87436543    -0.82900
O381        O  0.17608076  0.26528508  0.85900094    -0.77700
O382        O  0.17929294  0.34883456  0.99597549    -0.79500
O383        O  0.30592951  0.33511945  0.87749872    -0.82200
C384        C  0.18018267  0.23353357  0.88420547     0.98500
C385        C  0.11525297  0.33444165  0.89711120     1.06000
O386        O  0.21971521  0.32515013  0.91693403    -1.11200
O387        O  0.25643882  0.41065482  0.90732404    -0.73700
O388        O  0.22377675  0.38883684  0.84697803    -0.77100
O389        O  0.18847572  0.23803982  0.92390567    -0.77800
C390        C  0.24300521  0.41747944  0.86939852     0.97400
O391        O  0.25664530  0.30128704  0.83688277    -0.75800
O392        O  0.24667717  0.37396084  0.99266444    -0.81000
C393        C  0.27746705  0.27521969  0.99133213     1.00100
C394        C  0.20995681  0.37188119  0.01066359     1.06000
O395        O  0.23684421  0.27465970  0.99514510    -0.76600
C396        C  0.29491404  0.31323794  0.84412972     1.04300
Fe397      Fe  0.63009130  0.78647799  0.83585689     1.65800
Fe398      Fe  0.53843274  0.73343593  0.86112435     1.73200
Fe399      Fe  0.53828516  0.80611894  0.77857700     1.54400
O400        O  0.56257741  0.86579656  0.79729487    -0.80400
O401        O  0.50069581  0.71073285  0.81129474    -0.78700
O402        O  0.62387238  0.85206659  0.83229617    -0.82900
O403        O  0.64489472  0.78124308  0.77244479    -0.77700
O404        O  0.48535314  0.81701412  0.81653066    -0.79500
O405        O  0.58261707  0.68479103  0.84618303    -0.82200
C406        C  0.62611745  0.78819912  0.73711752     0.98500
C407        C  0.59695944  0.87800307  0.81627508     1.06000
O408        O  0.56880853  0.77561745  0.82532019    -1.11200
O409        O  0.57331660  0.74596002  0.91732884    -0.73700
O410        O  0.62453480  0.79241903  0.90094858    -0.77100
O411        O  0.58686593  0.79867233  0.73419293    -0.77800
C412        C  0.60681604  0.76736359  0.92704601     0.97400
O413        O  0.64352307  0.72209388  0.83955523    -0.75800
O414        O  0.49075719  0.77900687  0.87715650    -0.81000
C415        C  0.49481772  0.71810029  0.77172205     1.00100
C416        C  0.47141863  0.80628126  0.85312216     1.06000
O417        O  0.51045845  0.75067334  0.75343567    -0.76600
C418        C  0.62300429  0.68678607  0.83997343     1.04300
Fe419      Fe  0.27194190  0.83681090  0.86314945     1.65800
Fe420      Fe  0.28613664  0.79513599  0.96353926     1.73200
Fe421      Fe  0.20439767  0.86672687  0.94383318     1.54400
O422        O  0.21567505  0.91833684  0.90256115    -0.80400
O423        O  0.23222620  0.77040777  0.99182270    -0.78700
O424        O  0.27097339  0.90322207  0.86022322    -0.82900
O425        O  0.20850095  0.83408005  0.84235899    -0.77700
O426        O  0.24141924  0.89549265  0.99146387    -0.79500
O427        O  0.28478948  0.74208384  0.92114437    -0.82200
C428        C  0.17112654  0.83241931  0.85873376     0.98500
C429        C  0.24096089  0.92809765  0.87219907     1.06000
O430        O  0.25453935  0.83313440  0.92366601    -1.11200
O431        O  0.34613595  0.81146692  0.94219121    -0.73700
O432        O  0.33835259  0.83718498  0.87608447    -0.77100
O433        O  0.16395176  0.84025706  0.89806747    -0.77800
C434        C  0.36178365  0.82404304  0.90717188     0.97400
O435        O  0.27267721  0.77170149  0.85711703    -0.75800
O436        O  0.29008654  0.84515329  0.00913817    -0.81000
C437        C  0.19559438  0.78484646  0.00125581     1.00100
C438        C  0.27184625  0.88162605  0.01515771     1.06000
O439        O  0.18205868  0.82065967  0.98719280    -0.76600
C440        C  0.27835231  0.73935201  0.88066855     1.04300
Fe441      Fe  0.65726839  0.14558098  0.76817280     1.65800
Fe442      Fe  0.69905112  0.04728966  0.79215676     1.73200
Fe443      Fe  0.62765944  0.05903372  0.70737554     1.54400
O444        O  0.57433278  0.09786039  0.71764198    -0.80400
O445        O  0.72537698  0.01567506  0.74046002    -0.78700
O446        O  0.59152037  0.14642979  0.76807364    -0.82900
O447        O  0.65924818  0.16115816  0.70404940    -0.77700
O448        O  0.60148579  0.01269621  0.74620784    -0.79500
O449        O  0.75072703  0.08994359  0.79041530    -0.82200
C450        C  0.65976343  0.14187373  0.66784757     0.98500
C451        C  0.56504927  0.12984928  0.74154160     1.06000
O452        O  0.66115462  0.08375133  0.75618697    -1.11200
O453        O  0.67991326  0.07368037  0.85009016    -0.73700
O454        O  0.65645542  0.13924955  0.83430437    -0.77100
O455        O  0.65101556  0.10230289  0.66334485    -0.77800
C456        C  0.66697131  0.11074606  0.86123896     0.97400
O457        O  0.72220978  0.15178453  0.76827454    -0.75800
O458        O  0.65142656  0.00062236  0.79708523    -0.81000
C459        C  0.71180979  0.00513670  0.70341866     1.00100
C460        C  0.61610255  0.99149668  0.77781588     1.06000
O461        O  0.67599724  0.01771363  0.68841007    -0.76600
C462        C  0.75397845  0.12891863  0.77892178     1.04300
Fe463      Fe  0.35618013  0.22093079  0.16450235     1.65800
Fe464      Fe  0.45654304  0.20049500  0.20178411     1.73200
Fe465      Fe  0.43938742  0.28089647  0.12872239     1.54400
O466        O  0.40587812  0.26163563  0.07413318    -0.80400
O467        O  0.49593216  0.25201759  0.21723906    -0.78700
O468        O  0.34673152  0.23157281  0.09970535    -0.82900
O469        O  0.34165873  0.28393320  0.17824290    -0.77700
O470        O  0.49018327  0.24345676  0.10851324    -0.79500
O471        O  0.42135507  0.21470800  0.25670540    -0.82200
C472        C  0.35670851  0.31990512  0.16654102     0.98500
C473        C  0.36788230  0.24766595  0.06917410     1.06000
O474        O  0.41751745  0.23404306  0.16464419    -1.11200
O475        O  0.42275967  0.14323235  0.19400826    -0.73700
O476        O  0.36616023  0.15633291  0.15188938    -0.77100
O477        O  0.39089842  0.32345153  0.14501178    -0.77800
C478        C  0.38987655  0.13065649  0.17286957     0.97400
O479        O  0.35489484  0.21053598  0.22953051    -0.75800
O480        O  0.49478855  0.18464375  0.14934973    -0.81000
C481        C  0.49762384  0.29153045  0.20803696     1.00100
C482        C  0.50650073  0.20713621  0.11742834     1.06000
O483        O  0.47512557  0.30779526  0.17828682    -0.76600
C484        C  0.38078171  0.21420474  0.26099867     1.04300
Fe485      Fe  0.69619955  0.16052086  0.12976883     1.65800
Fe486      Fe  0.77145868  0.14149787  0.05380758     1.73200
Fe487      Fe  0.68619064  0.20803249  0.03505865     1.54400
O488        O  0.62714444  0.19013040  0.06178527    -0.80400
O489        O  0.79624314  0.19500784  0.02380312    -0.78700
O490        O  0.63976458  0.13591131  0.10597588    -0.82900
O491        O  0.66915180  0.22072120  0.13398112    -0.77700
O492        O  0.68010604  0.15972085  0.98931954    -0.79500
O493        O  0.80360533  0.16191756  0.11028975    -0.82200
C494        C  0.68002095  0.25619544  0.11792632     0.98500
C495        C  0.61390625  0.16067336  0.08676402     1.06000
O496        O  0.71840510  0.16930380  0.07226538    -1.11200
O497        O  0.75750017  0.08242862  0.08082698    -0.73700
O498        O  0.71977015  0.09965330  0.13838918    -0.77100
O499        O  0.69286242  0.25864839  0.07940261    -0.77800
C500        C  0.74235387  0.07336319  0.11727373     0.97400
O501        O  0.75145948  0.18544073  0.15441302    -0.75800
O502        O  0.74104849  0.12108494  0.99640698    -0.81000
C503        C  0.77909123  0.22468641  0.00209214     1.00100
C504        C  0.70598753  0.13046883  0.97655558     1.06000
O505        O  0.73899847  0.23178260  0.00266815    -0.76600
C506        C  0.79069366  0.18080197  0.14466651     1.04300
Fe507      Fe  0.32135983  0.86858600  0.20652907     1.65800
Fe508      Fe  0.35440794  0.94089065  0.28014209     1.73200
Fe509      Fe  0.28347460  0.96837308  0.20142066     1.54400
O510        O  0.29226690  0.93958859  0.13991446    -0.80400
O511        O  0.30339491  0.96745708  0.31115273    -0.78700
O512        O  0.34324834  0.89047005  0.14925784    -0.82900
O513        O  0.25834279  0.87117544  0.18497565    -0.77700
O514        O  0.33544643  0.00716904  0.19132453    -0.79500
O515        O  0.33871894  0.88261163  0.31101711    -0.82200
C516        C  0.22596507  0.89302187  0.19691361     0.98500
C517        C  0.31858663  0.91165372  0.12490281     1.06000
O518        O  0.32004138  0.92630280  0.22971905    -1.11200
O519        O  0.40979806  0.91522629  0.25527596    -0.73700
O520        O  0.38363321  0.85533430  0.22622461    -0.77100
O521        O  0.22947719  0.93136780  0.21065102    -0.77800
C522        C  0.41436219  0.87668115  0.24297229     0.97400
O523        O  0.29911543  0.84577599  0.26262747    -0.75800
O524        O  0.37205356  0.00038949  0.25336509    -0.81000
C525        C  0.27770377  0.99607360  0.29859046     1.00100
C526        C  0.36424292  0.01967810  0.21791967     1.06000
O527        O  0.26970006  0.00236742  0.25878491    -0.76600
C528        C  0.31365890  0.85143982  0.30038088     1.04300
C529        C  0.38785580  0.05983885  0.20842737    -0.15100
C530        C  0.37647523  0.08513628  0.17513853    -0.30300
H531        H  0.41132513  0.07128352  0.23199053     0.13900
H532        H  0.35161761  0.07444908  0.15268367     0.14500
C533        C  0.56840112  0.16008964  0.09989959    -0.15100
C534        C  0.54264284  0.19326375  0.09026362    -0.30300
H535        H  0.55914264  0.13781948  0.12483093     0.13900
H536        H  0.55250793  0.21573795  0.06572213     0.14500
C537        C  0.69632415  0.10793905  0.93526978    -0.15100
C538        C  0.66674474  0.12310694  0.90725740    -0.30300
H539        H  0.71784779  0.08232027  0.92518354     0.13900
H540        H  0.64724816  0.15066583  0.91630458     0.14500
C541        C  0.31690881  0.89813196  0.07918818    -0.15100
C542        C  0.28376929  0.90819946  0.05328365    -0.30300
H543        H  0.33908884  0.87304341  0.06916970     0.13900
H544        H  0.26142155  0.93319110  0.06313096     0.14500
C545        C  0.60898709  0.92389360  0.81748970    -0.15100
C546        C  0.59228547  0.95233713  0.78984212    -0.30300
H547        H  0.63763561  0.93245817  0.83594960     0.13900
H548        H  0.56442074  0.94342229  0.77036098     0.14500
C549        C  0.42900737  0.82498112  0.86482444    -0.15100
C550        C  0.40906161  0.81836871  0.90218571    -0.30300
H551        H  0.41150130  0.84123209  0.83936226     0.13900
H552        H  0.42645797  0.80239939  0.92789085     0.14500
C553        C  0.30301274  0.25129072  0.02346485    -0.15100
C554        C  0.34602267  0.25499925  0.02737876    -0.30300
H555        H  0.28504784  0.23572433  0.04872797     0.13900
H556        H  0.36403067  0.27127471  0.00261403     0.14500
C557        C  0.18359244  0.87218528  0.19356589    -0.15100
C558        C  0.18201279  0.82945086  0.19827380    -0.30300
H559        H  0.15510498  0.89073209  0.18567555     0.13900
H560        H  0.21102040  0.81261581  0.20832374     0.14500
C561        C  0.12885881  0.76749491  0.04213766    -0.15100
C562        C  0.17020539  0.75955706  0.03260319    -0.30300
H563        H  0.11131121  0.79088460  0.02315255     0.13900
H564        H  0.18779995  0.73618426  0.05155781     0.14500
C565        C  0.17459421  0.38219270  0.08063578    -0.15100
C566        C  0.20414217  0.39492817  0.05197108    -0.30300
H567        H  0.15187866  0.35692716  0.07188312     0.13900
H568        H  0.22848077  0.41832878  0.06150527     0.14500
C569        C  0.11654805  0.56145023  0.17078397    -0.15100
C570        C  0.07999981  0.58018182  0.18370139    -0.30300
H571        H  0.13679919  0.57796553  0.14796571     0.13900
H572        H  0.05987093  0.56356682  0.20655963     0.14500
C573        C  0.30521615  0.35863924  0.21039722    -0.15100
C574        C  0.33188242  0.35886351  0.17690774    -0.30300
H575        H  0.30641770  0.33177997  0.23245260     0.13900
H576        H  0.33061185  0.38466330  0.15367178     0.14500
C577        C  0.90919371  0.68850653  0.11021438    -0.15100
C578        C  0.93246940  0.72499882  0.10935066    -0.30300
H579        H  0.92003582  0.66181692  0.12974402     0.13900
H580        H  0.92062780  0.75236910  0.09135892     0.14500
C581        C  0.67254567  0.76211319  0.97027730    -0.15100
C582        C  0.62935599  0.75805653  0.96796336    -0.30300
H583        H  0.68928689  0.77943015  0.94530552     0.13900
H584        H  0.61263589  0.73909486  0.99168670     0.14500
C585        C  0.04080322  0.30866318  0.89722461    -0.15100
C586        C  0.06959821  0.33768174  0.88401516    -0.30300
H587        H  0.04943924  0.28730031  0.92332834     0.13900
H588        H  0.06183257  0.35798312  0.85683121     0.14500
C589        C  0.82440320  0.14723436  0.81060667    -0.15100
C590        C  0.79534690  0.15119509  0.77892299    -0.30300
H591        H  0.82370957  0.11997743  0.83211012     0.13900
H592        H  0.79705169  0.17924183  0.75838407     0.14500
C593        C  0.84743530  0.24156006  0.96437636    -0.15100
C594        C  0.80555263  0.24996073  0.97190326    -0.30300
H595        H  0.86478453  0.21992364  0.98550118     0.13900
H596        H  0.78818796  0.27124644  0.95043061     0.14500
C597        C  0.81657318  0.61598605  0.92013191    -0.15100
C598        C  0.78087588  0.61283264  0.94417711    -0.30300
H599        H  0.84277953  0.63663079  0.93101593     0.13900
H600        H  0.75400635  0.59361663  0.93227345     0.14500
C601        C  0.86714777  0.42123383  0.82098687    -0.15100
C602        C  0.87622234  0.44794909  0.78825318    -0.30300
H603        H  0.84315026  0.43078088  0.84435919     0.13900
H604        H  0.89864188  0.43748479  0.76369873     0.14500
C605        C  0.64874727  0.64734573  0.83217600    -0.15100
C606        C  0.68157644  0.64993236  0.80441137    -0.30300
H607        H  0.64438399  0.61926148  0.85207265     0.13900
H608        H  0.68475096  0.67911686  0.78575029     0.14500
C609        C  0.12380289  0.69030577  0.31118969    -0.15100
C610        C  0.16501706  0.70258295  0.31410729    -0.30300
H611        H  0.10763640  0.67516753  0.33784607     0.13900
H612        H  0.17896827  0.71948037  0.28711948     0.14500
C613        C  0.23547328  0.54644635  0.35043788    -0.15100
C614        C  0.24385289  0.54023219  0.30843806    -0.30300
H615        H  0.21410095  0.52452778  0.36683620     0.13900
H616        H  0.26583027  0.56164782  0.29217406     0.14500
C617        C  0.31385547  0.81413403  0.37158876    -0.15100
C618        C  0.30203200  0.81731778  0.33024995    -0.30300
H619        H  0.32937473  0.84050101  0.38888964     0.13900
H620        H  0.28440533  0.79053499  0.31557647     0.14500
C621        C  0.44121830  0.70778208  0.40159510    -0.15100
C622        C  0.41696764  0.67224330  0.39725162    -0.30300
H623        H  0.43005214  0.73436173  0.42156662     0.13900
H624        H  0.42709103  0.64642635  0.37579397     0.14500
C625        C  0.61658844  0.69240626  0.18527069    -0.15100
C626        C  0.65354064  0.71356612  0.17876142    -0.30300
H627        H  0.60322081  0.67035116  0.16134511     0.13900
H628        H  0.66489260  0.73583488  0.20368234     0.14500
C629        C  0.45519742  0.85476752  0.25306979    -0.15100
C630        C  0.45830487  0.81173784  0.24984535    -0.30300
H631        H  0.47986754  0.87302326  0.27023422     0.13900
H632        H  0.43329201  0.79357027  0.23307685     0.14500
C633        C  0.51913348  0.19373580  0.74287371    -0.15100
C634        C  0.52342293  0.15134519  0.73438227    -0.30300
H635        H  0.54365284  0.21045669  0.76177018     0.13900
H636        H  0.50007938  0.13502963  0.71371796     0.14500
C637        C  0.36330673  0.32211850  0.80338107    -0.15100
C638        C  0.32539527  0.30267325  0.80963156    -0.30300
H639        H  0.37794862  0.34258479  0.82797054     0.13900
H640        H  0.31284850  0.28181634  0.78407183     0.14500
C641        C  0.39440389  0.45679290  0.69535252    -0.15100
C642        C  0.38318560  0.43013127  0.66281640    -0.30300
H643        H  0.42081052  0.44800625  0.71661761     0.13900
H644        H  0.35635446  0.43850802  0.64193320     0.14500
C645        C  0.31594793  0.62249002  0.58502721    -0.15100
C646        C  0.28478948  0.61066720  0.55680910    -0.30300
H647        H  0.33786877  0.64831399  0.57695998     0.13900
H648        H  0.26090713  0.58711182  0.56610051     0.14500
C649        C  0.25414573  0.45893517  0.84960131    -0.15100
C650        C  0.24501734  0.46756260  0.80816838    -0.32700
H651        H  0.27565822  0.48010345  0.86768688     0.13900
H652        H  0.22279646  0.44713654  0.79010829     0.14500
C653        C  0.30604772  0.66642225  0.86275408    -0.15100
C654        C  0.27731050  0.69804470  0.85730923    -0.30300
H655        H  0.32570919  0.66469734  0.89170581     0.13900
H656        H  0.25881237  0.69825104  0.82740778     0.14500
C657        C  0.46582207  0.68907850  0.74717700    -0.15100
C658        C  0.45570042  0.65009139  0.76250242    -0.30300
H659        H  0.44797838  0.70234918  0.72024803     0.13900
H660        H  0.47454128  0.63703512  0.78890907     0.14500
C661        C  0.59145018  0.55505374  0.29466419    -0.15100
C662        C  0.60109387  0.58107650  0.32815192    -0.30300
H663        H  0.56772674  0.56511964  0.27096038     0.13900
H664        H  0.62636716  0.57217160  0.35069119     0.14500
C665        C  0.67697445  0.29331648  0.14744141    -0.15100
C666        C  0.68237566  0.33522480  0.13883435    -0.30300
H667        H  0.66880361  0.28454125  0.18014790     0.13900
H668        H  0.68749304  0.34615633  0.10626299     0.14500
C669        C  0.52926627  0.31842939  0.23156739    -0.15100
C670        C  0.53476596  0.36063161  0.22401397    -0.30300
H671        H  0.55200256  0.30165712  0.25211759     0.13900
H672        H  0.51212315  0.37751849  0.20347396     0.14500
C673        C  0.73099088  0.55671872  0.14420391    -0.15100
C674        C  0.73699102  0.54959437  0.18652504    -0.30300
H675        H  0.71359524  0.53309390  0.12477278     0.13900
H676        H  0.75409434  0.57332270  0.20607967     0.14500
C677        C  0.69371947  0.40192150  0.43920493    -0.15100
C678        C  0.66614755  0.38731606  0.40874922    -0.30300
H679        H  0.71325526  0.43002581  0.43260439     0.13900
H680        H  0.64734360  0.35859964  0.41481635     0.14500
C681        C  0.57629306  0.32805153  0.60658765    -0.15100
C682        C  0.54885561  0.29547198  0.59748675    -0.30300
H683        H  0.56735050  0.35205288  0.63053180     0.13900
H684        H  0.55898917  0.26969624  0.57599359     0.14500
C685        C  0.70291275  0.19666628  0.63502149    -0.15100
C686        C  0.67125873  0.16769540  0.63018162    -0.30300
H687        H  0.72265773  0.19540625  0.66407327     0.13900
H688        H  0.65008335  0.16788881  0.60223354     0.14500
C689        C  0.85218073  0.32050787  0.65915499    -0.15100
C690        C  0.84600939  0.29309863  0.69149725    -0.30300
H691        H  0.88149642  0.33931785  0.65712827     0.13900
H692        H  0.81586260  0.27534720  0.69230607     0.14500
C693        C  0.74855479  0.47056587  0.63883513    -0.15100
C694        C  0.73641570  0.47816760  0.67986692    -0.30300
H695        H  0.77055230  0.49266941  0.62353766     0.13900
H696        H  0.71567443  0.45524633  0.69569802     0.14500
C697        C  0.80546087  0.37577323  0.29749926    -0.15100
C698        C  0.80951719  0.33386666  0.28753529    -0.30300
H699        H  0.83142229  0.39368566  0.31295827     0.13900
H700        H  0.78303523  0.31740824  0.27115873     0.14500
C701        C  0.84956617  0.26538529  0.44966928    -0.15100
C702        C  0.80804669  0.25617298  0.45794916    -0.30300
H703        H  0.86620804  0.28857874  0.47026739     0.13900
H704        H  0.79094810  0.23332951  0.43735912     0.14500
C705        C  0.02199050  0.32822199  0.23905591    -0.15100
C706        C  0.02896697  0.37017405  0.24799472    -0.30300
H707        H  0.04459024  0.31104195  0.21869647     0.13900
H708        H  0.00648070  0.38794612  0.26792377     0.14500
C709        C  0.82072304  0.19730416  0.17728096    -0.15100
C710        C  0.86295474  0.18936896  0.17924595    -0.30300
H711        H  0.80573923  0.21372925  0.20439705     0.13900
H712        H  0.87994179  0.17456230  0.15257915     0.14500
C713        C  0.30252291  0.13454842  0.67777687    -0.15100
C714        C  0.30716501  0.17545205  0.69132172    -0.30300
H715        H  0.32820690  0.11763967  0.66134030     0.13900
H716        H  0.28079310  0.19004213  0.70905635     0.14500
C717        C  0.19495590  0.18295147  0.82767154    -0.15100
C718        C  0.17552483  0.19030307  0.86520593    -0.30300
H719        H  0.21755161  0.20691930  0.81620188     0.13900
H720        H  0.15299380  0.16750890  0.87857875     0.14500
C721        C  0.03383854  0.15152943  0.75649798    -0.15100
C722        C  0.02690381  0.19412615  0.75236580    -0.30300
H723        H  0.01156566  0.13261490  0.77522250     0.13900
H724        H  0.04917026  0.21306283  0.73365832     0.14500
C725        C  0.23886742  0.97188085  0.80527400    -0.15100
C726        C  0.23183572  0.96837052  0.84810693    -0.30300
H727        H  0.25719509  0.94699113  0.78890241     0.13900
H728        H  0.21156678  0.99205295  0.86392171     0.14500
C729        C  0.35856472  0.18902055  0.33208316    -0.15100
C730        C  0.36051750  0.22039979  0.30298883    -0.30300
H731        H  0.38195190  0.16311242  0.33191905     0.13900
H732        H  0.33566494  0.24497880  0.30368589     0.14500
C733        C  0.26073806  0.02493072  0.33255115    -0.15100
C734        C  0.23525266  0.05844347  0.32423825    -0.30300
H735        H  0.27500605  0.02212428  0.36443630     0.13900
H736        H  0.22073663  0.06116541  0.29245819     0.14500
C737        C  0.30482568  0.25111906  0.52678138    -0.15100
C738        C  0.34643878  0.24268813  0.53432556    -0.30300
H739        H  0.28796607  0.27398568  0.54721966     0.13900
H740        H  0.36349018  0.22052914  0.51328914     0.14500
C741        C  0.08023717  0.19341916  0.37014094    -0.15100
C742        C  0.05095652  0.22173664  0.38445982    -0.30300
H743        H  0.07372486  0.17423079  0.34138482     0.13900
H744        H  0.05885775  0.24343122  0.41103482     0.14500
C745        C  0.16136420  0.11811165  0.56913911    -0.15100
C746        C  0.19018941  0.10568951  0.53936618    -0.30300
H747        H  0.14147095  0.14605444  0.56275293     0.13900
H748        H  0.21030040  0.07791333  0.54577859     0.14500
C749        C  0.17134801  0.35265808  0.35751344    -0.15100
C750        C  0.20759068  0.32975260  0.36278776    -0.30300
H751        H  0.14329931  0.34602932  0.37686988     0.13900
H752        H  0.23443892  0.33716415  0.34193972     0.14500
C753        C  0.18409021  0.64852735  0.70961458    -0.15100
C754        C  0.15386352  0.64195523  0.67919035    -0.30300
H755        H  0.18290416  0.67836497  0.72825760     0.13900
H756        H  0.15358229  0.61300156  0.65933552     0.14500
C757        C  0.13486878  0.74126308  0.52876929    -0.15100
C758        C  0.17615240  0.75308291  0.52333997    -0.30300
H759        H  0.12019264  0.71775774  0.50705652     0.13900
H760        H  0.19139060  0.77502085  0.54629110     0.14500
C761        C  0.10854202  0.91823688  0.66715274    -0.15100
C762        C  0.09602639  0.94736975  0.69689183    -0.30300
H763        H  0.13467500  0.92617981  0.64570520     0.13900
H764        H  0.07217160  0.93834185  0.72044059     0.14500
C765        C  0.95617133  0.69195667  0.74220080    -0.15100
C766        C  0.94630302  0.65047469  0.73340135    -0.30300
H767        H  0.93714795  0.70995308  0.76532052     0.13900
H768        H  0.96595379  0.63247317  0.71080787     0.14500
C769        C  0.14168579  0.79260279  0.79833864    -0.15100
C770        C  0.13491641  0.82124927  0.82992210    -0.30300
H771        H  0.17195054  0.77504756  0.79818699     0.13900
H772        H  0.10528575  0.83959796  0.83153486     0.14500
C773        C  0.86755847  0.06290522  0.31310225    -0.15100
C774        C  0.90578442  0.08101539  0.30545060    -0.30300
H775        H  0.84376747  0.08110072  0.33107639     0.13900
H776        H  0.92931041  0.06335046  0.28664963     0.14500
C777        C  0.80789957  0.82885877  0.11971399    -0.15100
C778        C  0.84362344  0.83559033  0.14322634    -0.30300
H779        H  0.78259632  0.85286651  0.11864710     0.13900
H780        H  0.86727386  0.80985862  0.14449949     0.14500
C781        C  0.96968339  0.87199894  0.25230923    -0.15100
C782        C  0.97454601  0.83014990  0.26188813    -0.30300
H783        H  0.99094562  0.88673041  0.22919391     0.13900
H784        H  0.95186194  0.81492418  0.28330226     0.14500
C785        C  0.74238041  0.02233739  0.17782202    -0.15100
C786        C  0.75556870  0.03277126  0.13801379    -0.30300
H787        H  0.71504936  0.03878959  0.19194167     0.13900
H788        H  0.78202522  0.01517587  0.12356913     0.14500
C789        C  0.70277890  0.83527700  0.27972698    -0.15100
C790        C  0.66611311  0.84434710  0.30048317    -0.30300
H791        H  0.70796730  0.80310936  0.26675931     0.13900
H792        H  0.66092101  0.87611624  0.31435774     0.14500
C793        C  0.91244887  0.83457819  0.60976077    -0.15100
C794        C  0.94052300  0.80495966  0.59539597    -0.30300
H795        H  0.92038004  0.85375671  0.63817074     0.13900
H796        H  0.93211447  0.78521368  0.56749494     0.14500
C797        C  0.82024588  0.89209490  0.41502089    -0.15100
C798        C  0.78821797  0.90279916  0.44142778    -0.30300
H799        H  0.84332511  0.86776189  0.42472942     0.13900
H800        H  0.76363591  0.92517331  0.43071101     0.14500
C801        C  0.64546663  0.80932477  0.66384547    -0.15100
C802        C  0.65312950  0.78591523  0.69899230    -0.30300
H803        H  0.61469278  0.82518056  0.65925359     0.13900
H804        H  0.68429369  0.77066933  0.70329393     0.14500
C805        C  0.72921751  0.96582105  0.63674572    -0.15100
C806        C  0.73752980  0.97418468  0.67842145    -0.30300
H807        H  0.70748766  0.98660781  0.61901024     0.13900
H808        H  0.75994454  0.95411562  0.69612902     0.14500
C809        C  0.80116464  0.69430326  0.62597848    -0.15100
C810        C  0.78572876  0.68927076  0.66574531    -0.30300
H811        H  0.82005365  0.66938298  0.61037388     0.13900
H812        H  0.76604870  0.71486916  0.67938832     0.14500
C813        C  0.68188375  0.75480464  0.46095053    -0.15100
C814        C  0.63930743  0.76106434  0.45611340    -0.30300
H815        H  0.69947174  0.73645254  0.43693898     0.13900
H816        H  0.62179523  0.77980585  0.47987843     0.14500
loop_ 
_geom_bond_atom_site_label_1 
_geom_bond_atom_site_label_2 
_geom_bond_distance 
_geom_bond_site_symmetry_2 
_ccdc_geom_bond_type 
Fe1          O17   2.041       .  S
Fe1           O7   2.063       .  S
Fe1          O14   2.067       .  S
Fe1           O6   2.056       .  S
Fe1          O12   1.944       .  S
Fe2           O5   2.046       .  S
Fe2           O9   2.073       .  S
Fe2          O13   2.052       .  S
Fe2          O18   2.067       .  S
Fe2          O12   1.964       .  S
Fe3          O21   2.073       .  S
Fe3           O8   2.064       .  S
Fe3          O15   2.071       .  S
Fe3           O4   2.083       .  S
Fe3          O12   1.966       .  S
O4           C11   1.272       .  A
O5           C19   1.264       .  A
O6           C11   1.266       .  A
O7           C10   1.272       .  A
O8           C20   1.275       .  A
O9           C22   1.269       .  A
C10          O15   1.269       .  A
C10         C809   1.477       .  S
C11         C793   1.479       .  S
O13          C16   1.264       .  A
O14          C16   1.269       .  A
C16         C805   1.472       .  S
O17          C22   1.269       .  A
O18          C20   1.271       .  A
C19          O21   1.268       .  A
C19         C813   1.471       .  S
C20         C798   1.471       .  S
C22         C801   1.472       .  S
Fe23         O39   2.051       .  S
Fe23         O29   2.051       .  S
Fe23         O36   2.036       .  S
Fe23         O28   2.042       .  S
Fe23         O34   1.956       .  S
Fe24         O27   2.076       .  S
Fe24         O31   2.073       .  S
Fe24         O35   2.073       .  S
Fe24         O40   2.064   1_565  S
Fe24         O34   1.972       .  S
Fe25         O43   2.060       .  S
Fe25         O30   2.096   1_565  S
Fe25         O37   2.092       .  S
Fe25         O26   2.078       .  S
Fe25         O34   1.966       .  S
O26          C33   1.267       .  A
O27          C41   1.268       .  A
O28          C33   1.262       .  A
O29          C32   1.266       .  A
O30          C42   1.281       .  A
O31          C44   1.271       .  A
C32          O37   1.275       .  A
C32         C778   1.466       .  S
C33         C781   1.474       .  S
O35          C38   1.269       .  A
O36          C38   1.260       .  A
C38         C797   1.466       .  S
O39          C44   1.268       .  A
O40          C42   1.272       .  A
C41          O43   1.265       .  A
C41         C785   1.481   1_565  S
C42         C773   1.481       .  S
C44         C789   1.467       .  S
Fe45         O61   2.027       .  S
Fe45         O51   2.060       .  S
Fe45         O58   2.059       .  S
Fe45         O50   2.038       .  S
Fe45         O56   1.959       .  S
Fe46         O49   2.075       .  S
Fe46         O53   2.093       .  S
Fe46         O57   2.077       .  S
Fe46         O62   2.087   1_455  S
Fe46         O56   1.982       .  S
Fe47         O65   2.069       .  S
Fe47         O52   2.066   1_455  S
Fe47         O59   2.072       .  S
Fe47         O48   2.079       .  S
Fe47         O56   1.980       .  S
O48          C55   1.268       .  A
O49          C63   1.267   1_455  A
O50          C55   1.262       .  A
O51          C54   1.271       .  A
O52          C64   1.274       .  A
O53          C66   1.275       .  A
C54          O59   1.269       .  A
C54         C754   1.476       .  S
C55         C757   1.474       .  S
O57          C60   1.269       .  A
O58          C60   1.265       .  A
C60         C761   1.479       .  S
O61          C66   1.262       .  A
O62          C64   1.279       .  A
C63          O65   1.267   1_655  A
C63         C765   1.487       .  S
C64         C794   1.478       .  S
C66         C769   1.463       .  S
Fe67         O83   2.033       .  S
Fe67         O73   2.054       .  S
Fe67         O80   2.058       .  S
Fe67         O72   2.041       .  S
Fe67         O78   1.953       .  S
Fe68         O71   2.045       .  S
Fe68         O75   2.113       .  S
Fe68         O79   2.051       .  S
Fe68         O84   2.101       .  S
Fe68         O78   1.985       .  S
Fe69         O87   2.090       .  S
Fe69         O74   2.072       .  S
Fe69         O81   2.073       .  S
Fe69         O70   2.103       .  S
Fe69         O78   1.972       .  S
O70          C77   1.280       .  A
O71          C85   1.267       .  A
O72          C77   1.264       .  A
O73          C76   1.267       .  A
O74          C86   1.270       .  A
O75          C88   1.274       .  A
C76          O81   1.266       .  A
C76         C729   1.479       .  S
C77         C734   1.481       .  S
O79          C82   1.267       .  A
O80          C82   1.268       .  A
C82         C741   1.458       .  S
O83          C88   1.261       .  A
O84          C86   1.276       .  A
C85          O87   1.277       .  A
C85         C737   1.472       .  S
C86         C746   1.495       .  S
C88         C750   1.475       .  S
Fe89        O105   2.025       .  S
Fe89         O95   2.075       .  S
Fe89        O102   2.091       .  S
Fe89         O94   2.052       .  S
Fe89        O100   1.943       .  S
Fe90         O93   2.065       .  S
Fe90         O97   2.104       .  S
Fe90        O101   2.067       .  S
Fe90        O106   2.098       .  S
Fe90        O100   1.955       .  S
Fe91        O109   2.113       .  S
Fe91         O96   2.065       .  S
Fe91        O103   2.071       .  S
Fe91         O92   2.130       .  S
Fe91        O100   1.960       .  S
O92          C99   1.281       .  A
O93         C107   1.267       .  A
O94          C99   1.267       .  A
O95          C98   1.274       .  A
O96         C108   1.276   1_545  A
O97         C110   1.278       .  A
C98         O103   1.269       .  A
C98         C713   1.481       .  S
C99         C745   1.493       .  S
O101        C104   1.267       .  A
O102        C104   1.272       .  A
C104        C721   1.490       .  S
O105        C110   1.264       .  A
O106        C108   1.280   1_545  A
C107        O109   1.277       .  A
C107        C725   1.498   1_545  S
C108        C762   1.483       .  S
C110        C717   1.463       .  S
Fe111       O127   2.038       .  S
Fe111       O117   2.063       .  S
Fe111       O124   2.087       .  S
Fe111       O116   2.069       .  S
Fe111       O122   1.956       .  S
Fe112       O115   2.071       .  S
Fe112       O119   2.083       .  S
Fe112       O123   2.066       .  S
Fe112       O128   2.089       .  S
Fe112       O122   1.972       .  S
Fe113       O131   2.055       .  S
Fe113       O118   2.043   1_655  S
Fe113       O125   2.058       .  S
Fe113       O114   2.066       .  S
Fe113       O122   1.969       .  S
O114        C121   1.265       .  A
O115        C129   1.264       .  A
O116        C121   1.271       .  A
O117        C120   1.274       .  A
O118        C130   1.275       .  A
O119        C132   1.275       .  A
C120        O125   1.268       .  A
C120        C710   1.472       .  S
C121        C774   1.480       .  S
O123        C126   1.266       .  A
O124        C126   1.271       .  A
C126        C701   1.490       .  S
O127        C132   1.268       .  A
O128        C130   1.279   1_655  A
C129        O131   1.262       .  A
C129        C705   1.478   1_655  S
C130        C742   1.472       .  S
C132        C698   1.461       .  S
Fe133       O149   2.035       .  S
Fe133       O139   2.052       .  S
Fe133       O146   2.059       .  S
Fe133       O138   2.053       .  S
Fe133       O144   1.967       .  S
Fe134       O137   2.081       .  S
Fe134       O141   2.091       .  S
Fe134       O145   2.088       .  S
Fe134       O150   2.094       .  S
Fe134       O144   1.992       .  S
Fe135       O153   2.077       .  S
Fe135       O140   2.070       .  S
Fe135       O147   2.077       .  S
Fe135       O136   2.087       .  S
Fe135       O144   1.984       .  S
O136        C143   1.271       .  A
O137        C151   1.269       .  A
O138        C143   1.265       .  A
O139        C142   1.269       .  A
O140        C152   1.274       .  A
O141        C154   1.273       .  A
C142        O147   1.268       .  A
C142        C689   1.479       .  S
C143        C693   1.484       .  S
O145        C148   1.271       .  A
O146        C148   1.266       .  A
C148        C681   1.482       .  S
O149        C154   1.264       .  A
O150        C152   1.279       .  A
C151        O153   1.269       .  A
C151        C702   1.493       .  S
C152        C677   1.485       .  S
C154        C685   1.466       .  S
Fe155       O171   2.048       .  S
Fe155       O161   2.052       .  S
Fe155       O168   2.052       .  S
Fe155       O160   2.058       .  S
Fe155       O166   1.944       .  S
Fe156       O159   2.068       .  S
Fe156       O163   2.091       .  S
Fe156       O167   2.070       .  S
Fe156       O172   2.076       .  S
Fe156       O166   1.966       .  S
Fe157       O175   2.084       .  S
Fe157       O162   2.057       .  S
Fe157       O169   2.069       .  S
Fe157       O158   2.096       .  S
Fe157       O166   1.973       .  S
O158        C165   1.273       .  A
O159        C173   1.268       .  A
O160        C165   1.265       .  A
O161        C164   1.271       .  A
O162        C174   1.274       .  A
O163        C176   1.273       .  A
C164        O169   1.270       .  A
C164        C697   1.475       .  S
C165        C678   1.486       .  S
O167        C170   1.267       .  A
O168        C170   1.266       .  A
C170        C670   1.478       .  S
O171        C176   1.272       .  A
O172        C174   1.275       .  A
C173        O175   1.270       .  A
C173        C674   1.487       .  S
C174        C661   1.469       .  S
C176        C666   1.484       .  S
Fe177       O193   2.039       .  S
Fe177       O183   2.061       .  S
Fe177       O190   2.061       .  S
Fe177       O182   2.055       .  S
Fe177       O188   1.959       .  S
Fe178       O181   2.068       .  S
Fe178       O185   2.093       .  S
Fe178       O189   2.067       .  S
Fe178       O194   2.089       .  S
Fe178       O188   1.986       .  S
Fe179       O197   2.058       .  S
Fe179       O184   2.063       .  S
Fe179       O191   2.073       .  S
Fe179       O180   2.068       .  S
Fe179       O188   1.979       .  S
O180        C187   1.267       .  A
O181        C195   1.266       .  A
O182        C187   1.265       .  A
O183        C186   1.271       .  A
O184        C196   1.272       .  A
O185        C198   1.275       .  A
C186        O191   1.268       .  A
C186        C653   1.479       .  S
C187        C658   1.473       .  S
O189        C192   1.267       .  A
O190        C192   1.266       .  A
C192        C645   1.474       .  S
O193        C198   1.266       .  A
O194        C196   1.279       .  A
C195        O197   1.266       .  A
C195        C650   1.479       .  S
C196        C641   1.479       .  S
C198        C753   1.468       .  S
Fe199       O215   2.029       .  S
Fe199       O205   2.081       .  S
Fe199       O212   2.075       .  S
Fe199       O204   2.050       .  S
Fe199       O210   1.938       .  S
Fe200       O203   2.050       .  S
Fe200       O207   2.115       .  S
Fe200       O211   2.051       .  S
Fe200       O216   2.109       .  S
Fe200       O210   1.954       .  S
Fe201       O219   2.081       .  S
Fe201       O206   2.065       .  S
Fe201       O213   2.066       .  S
Fe201       O202   2.095       .  S
Fe201       O210   1.958       .  S
O202        C209   1.274       .  A
O203        C217   1.265       .  A
O204        C209   1.264       .  A
O205        C208   1.275       .  A
O206        C218   1.275       .  A
O207        C220   1.279       .  A
C208        O213   1.269       .  A
C208        C637   1.478       .  S
C209        C642   1.478       .  S
O211        C214   1.264       .  A
O212        C214   1.272       .  A
C214        C738   1.475       .  S
O215        C220   1.264       .  A
O216        C218   1.281       .  A
C217        O219   1.270       .  A
C217        C633   1.475       .  S
C218        C682   1.489       .  S
C220        C714   1.473       .  S
Fe221       O237   2.064       .  S
Fe221       O227   2.041       .  S
Fe221       O234   2.049       .  S
Fe221       O226   2.055       .  S
Fe221       O232   1.942       .  S
Fe222       O225   2.067       .  S
Fe222       O229   2.070       .  S
Fe222       O233   2.074       .  S
Fe222       O238   2.063       .  S
Fe222       O232   1.961       .  S
Fe223       O241   2.062       .  S
Fe223       O228   2.076       .  S
Fe223       O235   2.085       .  S
Fe223       O224   2.063       .  S
Fe223       O232   1.957       .  S
O224        C231   1.266       .  A
O225        C239   1.267       .  A
O226        C231   1.266       .  A
O227        C230   1.268       .  A
O228        C240   1.273       .  A
O229        C242   1.269       .  A
C230        O235   1.272       .  A
C230        C790   1.476       .  S
C231        C814   1.472       .  S
O233        C236   1.270       .  A
O234        C236   1.263       .  A
C236        C662   1.469       .  S
O237        C242   1.272       .  A
O238        C240   1.274       .  A
C239        O241   1.268       .  A
C239        C630   1.474       .  S
C240        C621   1.473       .  S
C242        C625   1.474       .  S
Fe243       O259   2.030       .  S
Fe243       O249   2.072       .  S
Fe243       O256   2.066       .  S
Fe243       O248   2.042       .  S
Fe243       O254   1.932       .  S
Fe244       O247   2.049       .  S
Fe244       O251   2.110       .  S
Fe244       O255   2.060       .  S
Fe244       O260   2.103       .  S
Fe244       O254   1.947       .  S
Fe245       O263   2.079       .  S
Fe245       O250   2.051       .  S
Fe245       O257   2.063       .  S
Fe245       O246   2.094       .  S
Fe245       O254   1.954       .  S
O246        C253   1.276       .  A
O247        C261   1.265       .  A
O248        C253   1.264       .  A
O249        C252   1.272       .  A
O250        C262   1.272       .  A
O251        C264   1.280       .  A
C252        O257   1.266       .  A
C252        C617   1.475       .  S
C253        C622   1.469       .  S
O255        C258   1.265       .  A
O256        C258   1.267       .  A
C258        C613   1.476       .  S
O259        C264   1.267       .  A
O260        C262   1.280       .  A
C261        O263   1.271       .  A
C261        C758   1.473       .  S
C262        C646   1.481       .  S
C264        C610   1.468       .  S
Fe265       O281   2.033       .  S
Fe265       O271   2.073       .  S
Fe265       O278   2.080       .  S
Fe265       O270   2.053       .  S
Fe265       O276   1.945       .  S
Fe266       O269   2.057       .  S
Fe266       O273   2.110       .  S
Fe266       O277   2.066       .  S
Fe266       O282   2.111       .  S
Fe266       O276   1.951       .  S
Fe267       O285   2.088       .  S
Fe267       O272   2.074       .  S
Fe267       O279   2.082       .  S
Fe267       O268   2.106       .  S
Fe267       O276   1.959       .  S
O268        C275   1.277       .  A
O269        C283   1.264       .  A
O270        C275   1.268       .  A
O271        C274   1.269       .  A
O272        C284   1.279       .  A
O273        C286   1.280       .  A
C274        O279   1.272       .  A
C274        C606   1.470       .  S
C275        C597   1.482       .  S
O277        C280   1.267       .  A
O278        C280   1.269       .  A
C280        C766   1.486       .  S
O281        C286   1.267       .  A
O282        C284   1.284       .  A
C283        O285   1.271       .  A
C283        C694   1.484       .  S
C284        C602   1.492       .  S
C286        C810   1.469       .  S
Fe287       O303   2.049       .  S
Fe287       O293   2.050       .  S
Fe287       O300   2.070       .  S
Fe287       O292   2.064       .  S
Fe287       O298   1.957       .  S
Fe288       O291   2.078       .  S
Fe288       O295   2.081       .  S
Fe288       O299   2.092       .  S
Fe288       O304   2.083       .  S
Fe288       O298   1.983       .  S
Fe289       O307   2.077       .  S
Fe289       O294   2.066       .  S
Fe289       O301   2.071       .  S
Fe289       O290   2.079       .  S
Fe289       O298   1.977       .  S
O290        C297   1.270       .  A
O291        C305   1.267       .  A
O292        C297   1.268       .  A
O293        C296   1.271       .  A
O294        C306   1.274   1_655  A
O295        C308   1.273       .  A
C296        O301   1.268       .  A
C296        C589   1.472       .  S
C297        C593   1.488       .  S
O299        C302   1.271       .  A
O300        C302   1.268       .  A
C302        C601   1.490       .  S
O303        C308   1.267       .  A
O304        C306   1.280   1_655  A
C305        O307   1.268       .  A
C305        C722   1.490   1_655  S
C306        C585   1.476       .  S
C308        C690   1.465       .  S
Fe309       O325   2.094       .  S
Fe309       O315   2.036       .  S
Fe309       O322   2.045       .  S
Fe309       O314   2.095       .  S
Fe309       O320   1.932       .  S
Fe310       O313   2.083   1_554  S
Fe310       O317   2.063       .  S
Fe310       O321   2.102       .  S
Fe310       O326   2.067   1_554  S
Fe310       O320   1.950       .  S
Fe311       O329   2.062       .  S
Fe311       O316   2.101   1_554  S
Fe311       O323   2.105       .  S
Fe311       O312   2.061       .  S
Fe311       O320   1.944       .  S
O312        C319   1.268       .  A
O313        C327   1.272       .  A
O314        C319   1.274       .  A
O315        C318   1.266       .  A
O316        C328   1.279       .  A
O317        C330   1.267       .  A
C318        O323   1.277       .  A
C318        C626   1.468       .  S
C319        C673   1.486       .  S
O321        C324   1.275       .  A
O322        C324   1.264       .  A
C324        C577   1.472       .  S
O325        C330   1.276       .  A
O326        C328   1.274       .  A
C327        O329   1.267   1_556  A
C327        C581   1.478       .  S
C328        C598   1.484       .  S
C330        C777   1.476       .  S
Fe331       O347   2.042       .  S
Fe331       O337   2.052       .  S
Fe331       O344   2.066       .  S
Fe331       O336   2.053       .  S
Fe331       O342   1.953       .  S
Fe332       O335   2.069       .  S
Fe332       O339   2.066       .  S
Fe332       O343   2.075       .  S
Fe332       O348   2.055       .  S
Fe332       O342   1.978       .  S
Fe333       O351   2.060       .  S
Fe333       O338   2.104       .  S
Fe333       O345   2.106       .  S
Fe333       O334   2.073       .  S
Fe333       O342   1.974       .  S
O334        C341   1.267       .  A
O335        C349   1.268       .  A
O336        C341   1.266       .  A
O337        C340   1.271       .  A
O338        C350   1.280       .  A
O339        C352   1.266       .  A
C340        O345   1.276       .  A
C340        C749   1.483       .  S
C341        C706   1.483       .  S
O343        C346   1.272       .  A
O344        C346   1.271       .  A
C346        C565   1.477       .  S
O347        C352   1.261       .  A
O348        C350   1.268       .  A
C349        O351   1.268       .  A
C349        C614   1.475       .  S
C350        C569   1.484       .  S
C352        C573   1.458       .  S
Fe353       O369   2.030       .  S
Fe353       O359   2.080       .  S
Fe353       O366   2.104       .  S
Fe353       O358   2.070       .  S
Fe353       O364   1.949       .  S
Fe354       O357   2.055       .  S
Fe354       O361   2.087       .  S
Fe354       O365   2.056       .  S
Fe354       O370   2.096   1_455  S
Fe354       O364   1.960       .  S
Fe355       O373   2.068   1_455  S
Fe355       O360   2.057   1_455  S
Fe355       O367   2.060       .  S
Fe355       O356   2.070       .  S
Fe355       O364   1.964       .  S
O356        C363   1.266       .  A
O357        C371   1.262       .  A
O358        C363   1.272       .  A
O359        C362   1.277       .  A
O360        C372   1.275       .  A
O361        C374   1.274       .  A
C362        O367   1.270       .  A
C362        C609   1.474       .  S
C363        C570   1.482       .  S
O365        C368   1.266       .  A
O366        C368   1.277       .  A
C368        C561   1.492       .  S
O369        C374   1.264       .  A
O370        C372   1.280       .  A
C371        O373   1.265   1_455  A
C371        C782   1.474   1_455  S
C372        C578   1.478       .  S
C374        C558   1.462       .  S
Fe375       O391   2.034       .  S
Fe375       O381   2.074       .  S
Fe375       O388   2.076       .  S
Fe375       O380   2.048       .  S
Fe375       O386   1.937       .  S
Fe376       O379   2.068       .  S
Fe376       O383   2.114       .  S
Fe376       O387   2.063       .  S
Fe376       O392   2.101       .  S
Fe376       O386   1.950       .  S
Fe377       O395   2.080       .  S
Fe377       O382   2.048       .  S
Fe377       O389   2.054       .  S
Fe377       O378   2.095       .  S
Fe377       O386   1.957       .  S
O378        C385   1.275       .  A
O379        C393   1.270       .  A
O380        C385   1.264       .  A
O381        C384   1.274       .  A
O382        C394   1.271   1_556  A
O383        C396   1.278       .  A
C384        O389   1.265       .  A
C384        C718   1.469       .  S
C385        C586   1.478       .  S
O387        C390   1.268       .  A
O388        C390   1.271       .  A
C390        C649   1.478       .  S
O391        C396   1.265       .  A
O392        C394   1.279   1_556  A
C393        O395   1.271       .  A
C393        C553   1.479   1_556  S
C394        C566   1.477       .  S
C396        C638   1.473       .  S
Fe397       O413   2.050       .  S
Fe397       O403   2.035       .  S
Fe397       O410   2.040       .  S
Fe397       O402   2.053       .  S
Fe397       O408   1.960       .  S
Fe398       O401   2.054       .  S
Fe398       O405   2.096       .  S
Fe398       O409   2.082       .  S
Fe398       O414   2.112       .  S
Fe398       O408   1.977       .  S
Fe399       O417   2.071       .  S
Fe399       O404   2.062       .  S
Fe399       O411   2.068       .  S
Fe399       O400   2.078       .  S
Fe399       O408   1.981       .  S
O400        C407   1.273       .  A
O401        C415   1.266       .  A
O402        C407   1.266       .  A
O403        C406   1.261       .  A
O404        C416   1.270       .  A
O405        C418   1.275       .  A
C406        O411   1.267       .  A
C406        C802   1.461       .  S
C407        C545   1.475       .  S
O409        C412   1.268       .  A
O410        C412   1.262       .  A
C412        C582   1.479       .  S
O413        C418   1.270       .  A
O414        C416   1.284       .  A
C415        O417   1.267       .  A
C415        C657   1.477       .  S
C416        C549   1.489       .  S
C418        C605   1.485       .  S
Fe419       O435   2.032       .  S
Fe419       O425   2.073       .  S
Fe419       O432   2.102       .  S
Fe419       O424   2.069       .  S
Fe419       O430   1.968       .  S
Fe420       O423   2.055       .  S
Fe420       O427   2.100       .  S
Fe420       O431   2.053       .  S
Fe420       O436   2.095   1_556  S
Fe420       O430   1.979       .  S
Fe421       O439   2.102       .  S
Fe421       O426   2.063       .  S
Fe421       O433   2.055       .  S
Fe421       O422   2.099       .  S
Fe421       O430   1.981       .  S
O422        C429   1.274       .  A
O423        C437   1.262   1_556  A
O424        C429   1.269       .  A
O425        C428   1.275       .  A
O426        C438   1.273   1_556  A
O427        C440   1.275       .  A
C428        O433   1.267       .  A
C428        C770   1.472       .  S
C429        C726   1.493       .  S
O431        C434   1.264       .  A
O432        C434   1.277       .  A
C434        C550   1.491       .  S
O435        C440   1.263       .  A
O436        C438   1.281       .  A
C437        O439   1.272   1_554  A
C437        C562   1.492       .  S
C438        C542   1.482       .  S
C440        C654   1.469       .  S
Fe441       O457   2.030       .  S
Fe441       O447   2.060       .  S
Fe441       O454   2.069       .  S
Fe441       O446   2.046       .  S
Fe441       O452   1.958       .  S
Fe442       O445   2.053       .  S
Fe442       O449   2.085       .  S
Fe442       O453   2.064       .  S
Fe442       O458   2.081       .  S
Fe442       O452   1.984       .  S
Fe443       O461   2.065       .  S
Fe443       O448   2.063       .  S
Fe443       O455   2.068       .  S
Fe443       O444   2.078       .  S
Fe443       O452   1.981       .  S
O444        C451   1.270       .  A
O445        C459   1.263       .  A
O446        C451   1.266       .  A
O447        C450   1.270       .  A
O448        C460   1.271   1_545  A
O449        C462   1.272       .  A
C450        O455   1.266       .  A
C450        C686   1.475       .  S
C451        C634   1.475       .  S
O453        C456   1.267       .  A
O454        C456   1.268       .  A
C456        C538   1.478       .  S
O457        C462   1.262       .  A
O458        C460   1.277   1_545  A
C459        O461   1.268       .  A
C459        C806   1.472   1_545  S
C460        C546   1.479       .  S
C462        C590   1.461       .  S
Fe463       O479   2.053       .  S
Fe463       O469   2.052       .  S
Fe463       O476   2.067       .  S
Fe463       O468   2.065       .  S
Fe463       O474   1.951       .  S
Fe464       O467   2.066       .  S
Fe464       O471   2.081       .  S
Fe464       O475   2.078       .  S
Fe464       O480   2.083       .  S
Fe464       O474   1.976       .  S
Fe465       O483   2.061       .  S
Fe465       O470   2.063       .  S
Fe465       O477   2.071       .  S
Fe465       O466   2.067       .  S
Fe465       O474   1.972       .  S
O466        C473   1.267       .  A
O467        C481   1.266       .  A
O468        C473   1.268       .  A
O469        C472   1.271       .  A
O470        C482   1.272       .  A
O471        C484   1.271       .  A
C472        O477   1.268       .  A
C472        C574   1.472       .  S
C473        C554   1.482       .  S
O475        C478   1.270       .  A
O476        C478   1.270       .  A
C478        C530   1.478       .  S
O479        C484   1.266       .  A
O480        C482   1.277       .  A
C481        O483   1.266       .  A
C481        C669   1.475       .  S
C482        C534   1.475       .  S
C484        C730   1.467       .  S
Fe485       O501   2.026       .  S
Fe485       O491   2.057       .  S
Fe485       O498   2.051       .  S
Fe485       O490   2.044       .  S
Fe485       O496   1.946       .  S
Fe486       O489   2.070       .  S
Fe486       O493   2.105       .  S
Fe486       O497   2.077       .  S
Fe486       O502   2.104   1_554  S
Fe486       O496   1.952       .  S
Fe487       O505   2.076       .  S
Fe487       O492   2.064   1_554  S
Fe487       O499   2.090       .  S
Fe487       O488   2.101       .  S
Fe487       O496   1.952       .  S
O488        C495   1.279       .  A
O489        C503   1.266       .  A
O490        C495   1.265       .  A
O491        C494   1.264       .  A
O492        C504   1.278       .  A
O493        C506   1.282       .  A
C494        O499   1.270       .  A
C494        C665   1.470       .  S
C495        C533   1.478       .  S
O497        C500   1.267       .  A
O498        C500   1.261       .  A
C500        C786   1.481       .  S
O501        C506   1.269       .  A
O502        C504   1.284       .  A
C503        O505   1.267       .  A
C503        C594   1.486   1_554  S
C504        C537   1.484       .  S
C506        C709   1.461       .  S
Fe507       O523   2.020       .  S
Fe507       O513   2.068       .  S
Fe507       O520   2.070       .  S
Fe507       O512   2.038       .  S
Fe507       O518   1.927       .  S
Fe508       O511   2.036       .  S
Fe508       O515   2.120       .  S
Fe508       O519   2.054       .  S
Fe508       O524   2.113   1_565  S
Fe508       O518   1.939       .  S
Fe509       O527   2.111   1_565  S
Fe509       O514   2.046   1_565  S
Fe509       O521   2.060       .  S
Fe509       O510   2.123       .  S
Fe509       O518   1.948       .  S
O510        C517   1.282       .  A
O511        C525   1.260       .  A
O512        C517   1.264       .  A
O513        C516   1.272       .  A
O514        C526   1.271       .  A
O515        C528   1.282       .  A
C516        O521   1.266       .  A
C516        C557   1.471       .  S
C517        C541   1.479       .  S
O519        C522   1.263       .  A
O520        C522   1.268       .  A
C522        C629   1.476       .  S
O523        C528   1.265       .  A
O524        C526   1.283       .  A
C525        O527   1.278   1_565  A
C525        C733   1.480   1_565  S
C526        C529   1.483       .  S
C528        C618   1.466       .  S
C529        C530   1.353       .  D
C529        H531   1.086       .  S
C530        H532   1.086       .  S
C533        C534   1.342       .  D
C533        H535   1.087       .  S
C534        H536   1.087       .  S
C537        C538   1.351       .  D
C537        H539   1.087       .  S
C538        H540   1.086       .  S
C541        C542   1.342       .  D
C541        H543   1.087       .  S
C542        H544   1.087       .  S
C545        C546   1.343       .  D
C545        H547   1.087       .  S
C546        H548   1.087       .  S
C549        C550   1.341       .  D
C549        H551   1.087       .  S
C550        H552   1.087       .  S
C553        C554   1.348       .  D
C553        H555   1.087       .  S
C554        H556   1.087       .  S
C557        C558   1.340       .  D
C557        H559   1.086       .  S
C558        H560   1.089       .  S
C561        C562   1.346       .  D
C561        H563   1.087       .  S
C562        H564   1.087       .  S
C565        C566   1.349       .  D
C565        H567   1.087       .  S
C566        H568   1.087       .  S
C569        C570   1.341       .  D
C569        H571   1.087       .  S
C570        H572   1.087       .  S
C573        C574   1.338       .  D
C573        H575   1.088       .  S
C574        H576   1.087       .  S
C577        C578   1.346       .  D
C577        H579   1.087       .  S
C578        H580   1.087       .  S
C581        C582   1.351       .  D
C581        H583   1.087       .  S
C582        H584   1.086       .  S
C585        C586   1.342       .  D
C585        H587   1.087       .  S
C586        H588   1.087       .  S
C589        C590   1.338       .  D
C589        H591   1.086       .  S
C590        H592   1.089       .  S
C593        C594   1.352       .  D
C593        H595   1.087       .  S
C594        H596   1.087       .  S
C597        C598   1.349       .  D
C597        H599   1.087       .  S
C598        H600   1.087       .  S
C601        C602   1.354       .  D
C601        H603   1.086       .  S
C602        H604   1.087       .  S
C605        C606   1.347       .  D
C605        H607   1.086       .  S
C606        H608   1.088       .  S
C609        C610   1.340       .  D
C609        H611   1.086       .  S
C610        H612   1.089       .  S
C613        C614   1.346       .  D
C613        H615   1.087       .  S
C614        H616   1.087       .  S
C617        C618   1.339       .  D
C617        H619   1.086       .  S
C618        H620   1.090       .  S
C621        C622   1.343       .  D
C621        H623   1.087       .  S
C622        H624   1.087       .  S
C625        C626   1.343       .  D
C625        H627   1.086       .  S
C626        H628   1.089       .  S
C629        C630   1.344       .  D
C629        H631   1.087       .  S
C630        H632   1.087       .  S
C633        C634   1.349       .  D
C633        H635   1.087       .  S
C634        H636   1.087       .  S
C637        C638   1.342       .  D
C637        H639   1.086       .  S
C638        H640   1.089       .  S
C641        C642   1.344       .  D
C641        H643   1.087       .  S
C642        H644   1.087       .  S
C645        C646   1.350       .  D
C645        H647   1.086       .  S
C646        H648   1.087       .  S
C649        C650   1.347       .  D
C649        H651   1.087       .  S
C650        H652   1.087       .  S
C653        C654   1.341       .  D
C653        H655   1.086       .  S
C654        H656   1.089       .  S
C657        C658   1.346       .  D
C657        H659   1.086       .  S
C658        H660   1.088       .  S
C661        C662   1.343       .  D
C661        H663   1.087       .  S
C662        H664   1.087       .  S
C665        C666   1.344       .  D
C665        H667   1.089       .  S
C666        H668   1.086       .  S
C669        C670   1.347       .  D
C669        H671   1.087       .  S
C670        H672   1.087       .  S
C673        C674   1.349       .  D
C673        H675   1.087       .  S
C674        H676   1.086       .  S
C677        C678   1.347       .  D
C677        H679   1.087       .  S
C678        H680   1.087       .  S
C681        C682   1.350       .  D
C681        H683   1.087       .  S
C682        H684   1.087       .  S
C685        C686   1.341       .  D
C685        H687   1.089       .  S
C686        H688   1.086       .  S
C689        C690   1.342       .  D
C689        H691   1.086       .  S
C690        H692   1.089       .  S
C693        C694   1.353       .  D
C693        H695   1.087       .  S
C694        H696   1.087       .  S
C697        C698   1.342       .  D
C697        H699   1.086       .  S
C698        H700   1.089       .  S
C701        C702   1.351       .  D
C701        H703   1.087       .  S
C702        H704   1.086       .  S
C705        C706   1.348       .  D
C705        H707   1.087       .  S
C706        H708   1.086       .  S
C709        C710   1.338       .  D
C709        H711   1.090       .  S
C710        H712   1.086       .  S
C713        C714   1.343       .  D
C713        H715   1.086       .  S
C714        H716   1.090       .  S
C717        C718   1.337       .  D
C717        H719   1.090       .  S
C718        H720   1.086       .  S
C721        C722   1.350       .  D
C721        H723   1.087       .  S
C722        H724   1.087       .  S
C725        C726   1.358       .  D
C725        H727   1.087       .  S
C726        H728   1.087       .  S
C729        C730   1.341       .  D
C729        H731   1.086       .  S
C730        H732   1.088       .  S
C733        C734   1.337       .  D
C733        H735   1.087       .  S
C734        H736   1.087       .  S
C737        C738   1.341       .  D
C737        H739   1.087       .  S
C738        H740   1.087       .  S
C741        C742   1.343       .  D
C741        H743   1.087       .  S
C742        H744   1.087       .  S
C745        C746   1.349       .  D
C745        H747   1.087       .  S
C746        H748   1.087       .  S
C749        C750   1.344       .  D
C749        H751   1.086       .  S
C750        H752   1.089       .  S
C753        C754   1.342       .  D
C753        H755   1.089       .  S
C754        H756   1.086       .  S
C757        C758   1.349       .  D
C757        H759   1.087       .  S
C758        H760   1.087       .  S
C761        C762   1.348       .  D
C761        H763   1.087       .  S
C762        H764   1.087       .  S
C765        C766   1.350       .  D
C765        H767   1.086       .  S
C766        H768   1.087       .  S
C769        C770   1.337       .  D
C769        H771   1.089       .  S
C770        H772   1.086       .  S
C773        C774   1.340       .  D
C773        H775   1.087       .  S
C774        H776   1.087       .  S
C777        C778   1.340       .  D
C777        H779   1.086       .  S
C778        H780   1.089       .  S
C781        C782   1.347       .  D
C781        H783   1.087       .  S
C782        H784   1.087       .  S
C785        C786   1.351       .  D
C785        H787   1.087       .  S
C786        H788   1.087       .  S
C789        C790   1.345       .  D
C789        H791   1.087       .  S
C790        H792   1.086       .  S
C793        C794   1.346       .  D
C793        H795   1.087       .  S
C794        H796   1.087       .  S
C797        C798   1.337       .  D
C797        H799   1.087       .  S
C798        H800   1.087       .  S
C801        C802   1.340       .  D
C801        H803   1.087       .  S
C802        H804   1.088       .  S
C805        C806   1.342       .  D
C805        H807   1.087       .  S
C806        H808   1.087       .  S
C809        C810   1.342       .  D
C809        H811   1.086       .  S
C810        H812   1.089       .  S
C813        C814   1.347       .  D
C813        H815   1.087       .  S
C814        H816   1.087       .  S
