geometry optimzed in LAMMPS
_audit_creation_date              2020-12-01 
_audit_creation_method            'lammps2cif' 
_symmetry_space_group_name_H-M    'P1' 
_symmetry_Int_Tables_number       1 
_symmetry_cell_setting            triclinic 
loop_ 
_symmetry_equiv_pos_as_xyz 
  x,y,z 
_cell_length_a                    25.87852328 
_cell_length_b                    42.17920719598913 
_cell_length_c                    26.24991472279885 
_cell_angle_alpha                 85.50925215886716 
_cell_angle_beta                  107.74822268929536 
_cell_angle_gamma                 94.06742273234332 
loop_ 
_atom_site_label 
_atom_site_type_symbol 
_atom_site_fract_x 
_atom_site_fract_y 
_atom_site_fract_z 
_atom_site_charge 
O1          O  0.94357364  0.48264245  0.35602113    -0.81100
O2          O  0.95203745  0.48893576  0.59944194    -0.65800
O3          O  0.95364044  0.00613106  0.45643280    -1.12400
C4          C  0.13735973  0.98093641  0.53248968     1.05700
O5          O  0.02390504  0.01806622  0.62948668    -0.79000
O6          O  0.08407747  0.04337372  0.56752774    -0.66600
Ni7        Ni  0.89825199  0.48583976  0.40079188     1.34900
C8          C  0.07823614  0.05316926  0.51922339     0.84500
O9          O  0.88058541  0.01122392  0.51259542    -0.79600
O10         O  0.84393576  0.48760183  0.43627488    -0.89900
C11         C  0.98474601  0.00106795  0.63806484     0.84100
O12         O  0.91507026  0.44414574  0.43296141    -0.68100
O13         O  0.13244058  0.98812058  0.57692081    -0.87300
C14         C  0.91331800  0.43495646  0.47972157     0.84900
C15         C  0.84039163  0.50047001  0.47712735     1.06500
H16         H  0.02422485  0.46239314  0.54848323     0.38300
O17         O  0.02328979  0.48517352  0.54074233    -1.10000
O18         O  0.05535535  0.03590548  0.47997320    -0.66700
Ni19       Ni  0.02622394  0.99232770  0.47101312     1.26300
O20         O  0.92334335  0.45424826  0.51707482    -0.66900
O21         O  0.09837410  0.48063088  0.48657330    -0.79200
C22         C  0.99028723  0.49363321  0.35516450     0.84300
O23         O  0.02717543  0.99971126  0.39832099    -0.66400
Ni24       Ni  0.07595452  0.00221149  0.60051481     1.27400
Ni25       Ni  0.95164247  0.49810507  0.52693958     1.26100
H26         H  0.95265884  0.02886162  0.44836513     0.38800
O27         O  0.44036203  0.48387562  0.36211067    -0.81100
O28         O  0.46481557  0.48839287  0.61045046    -0.65800
O29         O  0.45000698  0.00953675  0.46209525    -1.12400
C30         C  0.63855705  0.48777062  0.52216776     1.05700
O31         O  0.53314788  0.02130597  0.63309087    -0.79000
O32         O  0.59129296  0.04661668  0.56946743    -0.66600
Ni33       Ni  0.39689239  0.48452776  0.40990311     1.34900
C34         C  0.57642387  0.05895450  0.52197293     0.84500
O35         O  0.38415788  0.50741099  0.52614337    -0.79600
O36         O  0.34548931  0.48372404  0.44944723    -0.89900
C37         C  0.49955319  0.50483286  0.64459002     0.84100
O38         O  0.41986650  0.44357479  0.44150396    -0.68100
O39         O  0.63686432  0.48723571  0.57022369    -0.87300
C40         C  0.41985178  0.43327758  0.48831563     0.84900
C41         C  0.34326184  0.49514509  0.49212987     1.06500
H42         H  0.52996964  0.46374924  0.54550176     0.38300
O43         O  0.52777394  0.48662544  0.54191421    -1.10000
O44         O  0.54706507  0.04362754  0.48248558    -0.66700
Ni45       Ni  0.52452896  0.49983926  0.47034119     1.26300
O46         O  0.43089707  0.45190977  0.52690632    -0.66900
O47         O  0.59815580  0.49189853  0.48055382    -0.79200
C48         C  0.48270186  0.49960646  0.35762283     0.79500
O49         O  0.51901747  0.00981109  0.39845581    -0.66400
Ni50       Ni  0.58188087  0.00503294  0.60055634     1.27400
Ni51       Ni  0.45591787  0.49673350  0.53564086     1.26100
H52         H  0.44585295  0.03218114  0.45481559     0.38800
O53         O  0.20471976  0.22629992  0.36248604    -0.81100
O54         O  0.22888475  0.22961382  0.60798242    -0.65800
O55         O  0.21903619  0.25215572  0.46230734    -1.12400
C56         C  0.40429294  0.23890669  0.51392327     1.05700
O57         O  0.30918353  0.25386333  0.64368082    -0.79000
O58         O  0.33892898  0.29211950  0.56873308    -0.66600
Ni59       Ni  0.16136482  0.23186841  0.40804954     1.34900
C60         C  0.33515499  0.30309935  0.52136028     0.84500
O61         O  0.15242652  0.25305751  0.52655199    -0.79600
O62         O  0.10975712  0.23542985  0.44558948    -0.89900
C63         C  0.26484058  0.24083203  0.64757284     0.84100
O64         O  0.17280386  0.18913474  0.43687272    -0.68100
O65         O  0.40346457  0.24716314  0.55906406    -0.87300
C66         C  0.17702406  0.17886359  0.48463946     0.84900
C67         C  0.10982312  0.24487047  0.49033014     1.06500
H68         H  0.29755167  0.20655679  0.54800227     0.38300
O69         O  0.29485046  0.22935993  0.54215957    -1.10000
O70         O  0.31830573  0.28558155  0.48126049    -0.66700
Ni71       Ni  0.29106483  0.24140321  0.46934143     1.26300
O72         O  0.19503169  0.19673772  0.52394961    -0.66900
O73         O  0.36227638  0.22973971  0.47781635    -0.79200
C74         C  0.24765761  0.24052427  0.35714333     0.84300
O75         O  0.28430998  0.25225210  0.39586839    -0.66400
Ni76       Ni  0.35210821  0.24939966  0.59705785     1.27400
Ni77       Ni  0.22304345  0.24057442  0.53504492     1.26100
H78         H  0.21600443  0.27493553  0.45615261     0.38800
O79         O  0.72010939  0.22324029  0.37298757    -0.81100
O80         O  0.71734420  0.23545560  0.60555541    -0.65800
O81         O  0.72242708  0.25618942  0.46278309    -1.12400
C82         C  0.90525578  0.23908269  0.53012955     1.05700
O83         O  0.79688632  0.25957391  0.64586540    -0.79000
O84         O  0.83089486  0.29701759  0.57090221    -0.66600
Ni85       Ni  0.66837504  0.23853465  0.40303214     1.34900
C86         C  0.83298985  0.30615326  0.52423553     0.84500
O87         O  0.64628464  0.25749078  0.51639131    -0.79600
O88         O  0.61195097  0.25214781  0.42741849    -0.89900
C89         C  0.75222766  0.24548450  0.64729686     0.84100
O90         O  0.65923525  0.19674255  0.43370731    -0.68100
O91         O  0.90098325  0.25176615  0.57095156    -0.87300
C92         C  0.66776287  0.18554703  0.48168748     0.84900
C93         C  0.60732863  0.25699208  0.47305410     1.06500
H94         H  0.79378468  0.21089202  0.55618303     0.38300
O95         O  0.79137736  0.23358027  0.54802871    -1.10000
O96         O  0.82273983  0.28695122  0.48685165    -0.66700
Ni97       Ni  0.79423275  0.24332652  0.47649179     1.26300
O98         O  0.69219170  0.20177911  0.52181589    -0.66900
O99         O  0.86493234  0.22937103  0.49271027    -0.79200
C100        C  0.75954351  0.24025355  0.36498833     0.84300
O101        O  0.79423065  0.25300263  0.40396647    -0.66400
Ni102      Ni  0.84491588  0.25511137  0.60374797     1.27400
Ni103      Ni  0.71850477  0.24546163  0.53343435     1.26100
H104        H  0.72190112  0.27908227  0.45688316     0.38800
O105        O  0.93267001  0.99162959  0.86632006    -0.81100
O106        O  0.97912791  0.00274520  0.10415386    -0.65800
O107        O  0.99289688  0.01370385  0.96460332    -1.12400
C108        C  0.07722642  0.41796852  0.00807470     1.05700
O109        O  0.06368308  0.49253063  0.13870794    -0.79000
O110        O  0.12802787  0.48814280  0.07234312    -0.66600
Ni111      Ni  0.93453599  0.02858981  0.90547781     1.34900
C112        C  0.13291494  0.49265651  0.02548391     0.84500
O113        O  0.95551640  0.05101125  0.02850577    -0.79600
O114        O  0.93392054  0.06651610  0.94071100    -0.89900
C115        C  0.01884527  0.99580034  0.14491507     0.84100
O116        O  0.87236114  0.01298218  0.92761265    -0.68100
O117        O  0.09123508  0.42709228  0.05596249    -0.87300
C118        C  0.86605121  0.50253445  0.97147180     0.84900
C119        C  0.93575872  0.07086176  0.98885010     1.06500
H120        H  0.98307601  0.45475018  0.03716254     0.38300
O121        O  0.01109395  0.47093615  0.03589307    -1.10000
O122        O  0.09229163  0.48988854  0.98346219    -0.66700
Ni123      Ni  0.01683990  0.47443428  0.96525510     1.26300
O124        O  0.90806461  0.99275751  0.01116064    -0.66900
O125        O  0.04261020  0.43235054  0.96917862    -0.79200
C126        C  0.97558416  0.48716419  0.85520227     0.84300
O127        O  0.01763060  0.47990250  0.89306313    -0.66400
Ni128      Ni  0.07476358  0.46072238  0.09387544     1.27400
Ni129      Ni  0.98346437  0.00923305  0.03337342     1.26100
H130        H  0.02344866  0.02863595  0.96656522     0.38800
O131        O  0.55450886  0.48904750  0.14367405    -0.81100
O132        O  0.51942711  0.49834357  0.89512041    -0.65800
O133        O  0.54444431  0.01735896  0.04095138    -1.12400
C134        C  0.34915012  0.49849253  0.99463650     1.05700
O135        O  0.45264790  0.03121313  0.86930129    -0.79000
O136        O  0.40518028  0.05778382  0.93591192    -0.66600
Ni137      Ni  0.59929467  0.49579452  0.09600449     1.34900
C138        C  0.42173192  0.06803511  0.98274741     0.84500
O139        O  0.61033608  0.51619060  0.97087400    -0.79600
O140        O  0.65190524  0.50118303  0.05644685    -0.89900
C141        C  0.48584307  0.01375179  0.85885969     0.84100
O142        O  0.58148452  0.45339041  0.07233679    -0.68100
O143        O  0.34981429  0.49948427  0.94608815    -0.87300
C144        C  0.57116365  0.44433236  0.02494523     0.84900
C145        C  0.65336410  0.50926811  0.00894390     1.06500
H146        H  0.45430551  0.47418183  0.96781249     0.38300
O147        O  0.46049820  0.49704730  0.96754259    -1.10000
O148        O  0.45287746  0.05257224  0.02262027    -0.66700
Ni149      Ni  0.46919119  0.50875157  0.03805919     1.26300
O150        O  0.55192780  0.46277353  0.98365537    -0.66900
O151        O  0.39275135  0.50098167  0.03417904    -0.79200
C152        C  0.51645976  0.50479027  0.14936914     0.84300
O153        O  0.48226922  0.01738999  0.11093394    -0.66400
Ni154      Ni  0.40412497  0.01641054  0.91010961     1.27400
Ni155      Ni  0.53468626  0.50691504  0.96815484     1.26100
H156        H  0.55253717  0.04001448  0.04324725     0.38800
O157        O  0.28926777  0.21647862  0.13199460    -0.81100
O158        O  0.26037301  0.22881387  0.89192919    -0.65800
O159        O  0.28220218  0.24958588  0.03425777    -1.12400
C160        C  0.08953891  0.23996150  0.99246097     1.05700
O161        O  0.18720144  0.25734755  0.85658882    -0.79000
O162        O  0.16338002  0.29427649  0.92791979    -0.66600
Ni163      Ni  0.33842934  0.23100130  0.09188031     1.34900
C164        C  0.17332413  0.30345629  0.97516416     0.84500
O165        O  0.35038904  0.24622680  0.96865722    -0.79600
O166        O  0.39262874  0.24432690  0.05719809    -0.89900
C167        C  0.22657808  0.24234000  0.85217475     0.84100
O168        O  0.33727642  0.18944818  0.06662408    -0.68100
O169        O  0.09101669  0.24812582  0.94500892    -0.87300
C170        C  0.31936427  0.17876960  0.02017461     0.84900
C171        C  0.39384883  0.24653645  0.00877463     1.06500
H172        H  0.18916677  0.20788899  0.95848976     0.38300
O173        O  0.19812841  0.23046605  0.96090683    -1.10000
O174        O  0.19141386  0.28491733  0.01664999    -0.66700
Ni175      Ni  0.20769398  0.24058231  0.03271880     1.26300
O176        O  0.28789868  0.19413812  0.98045045    -0.66900
O177        O  0.13215140  0.23176065  0.02982076    -0.79200
C178        C  0.25695634  0.23445129  0.14264501     0.84300
O179        O  0.22287759  0.24966973  0.10536642    -0.66400
Ni180      Ni  0.14326940  0.25192153  0.90500278     1.27400
Ni181      Ni  0.27365455  0.23857650  0.96369008     1.26100
H182        H  0.28955316  0.27235333  0.03506369     0.38800
O183        O  0.67761456  0.25278457  0.86308401    -0.81100
O184        O  0.72471688  0.26734953  0.10876392    -0.65800
O185        O  0.73137095  0.27527356  0.96546134    -1.12400
C186        C  0.81313309  0.17428349  0.01753846     1.05700
O187        O  0.81045864  0.25550700  0.13554461    -0.79000
O188        O  0.87250464  0.23581006  0.07487655    -0.66600
Ni189      Ni  0.66849226  0.28582520  0.90699238     1.34900
C190        C  0.87656577  0.24597849  0.02921103     0.84500
O191        O  0.69901888  0.31425724  0.03138614    -0.79600
O192        O  0.65367487  0.32056747  0.94380806    -0.89900
C193        C  0.76733265  0.26073922  0.14647701     0.84100
O194        O  0.61417513  0.25994248  0.92911054    -0.68100
O195        O  0.81729071  0.18003103  0.06571714    -0.87300
C196        C  0.60945964  0.25418892  0.97584266     0.84900
C197        C  0.66644873  0.32935732  0.99185686     1.06500
H198        H  0.72271173  0.21511747  0.03858603     0.38300
O199        O  0.75212072  0.23064695  0.03896072    -1.10000
O200        O  0.83470454  0.25164235  0.98921813    -0.66700
Ni201      Ni  0.76021171  0.23394246  0.96951358     1.26300
O202        O  0.65021437  0.25618101  0.01803592    -0.66900
O203        O  0.78996306  0.19254014  0.97668805    -0.79200
C204        C  0.72172622  0.24419522  0.85728661     0.84300
O205        O  0.76282375  0.23881313  0.89767637    -0.66400
Ni206      Ni  0.81238345  0.21822466  0.09851938     1.27400
Ni207      Ni  0.72549354  0.27235878  0.03624119     1.26100
H208        H  0.75955350  0.29134673  0.96421338     0.38800
C209        C  0.44897643  0.24793356  0.99973716    -0.05700
C210        C  0.45395432  0.24995668  0.94757191    -0.33100
C211        C  0.50521484  0.25017984  0.93869569     0.36100
C212        C  0.55357487  0.24801470  0.98238700    -0.06100
C213        C  0.54821253  0.24486451  0.03428915    -0.33000
C214        C  0.49735839  0.24469883  0.04320587     0.36000
H215        H  0.41795321  0.25162188  0.91321986     0.16400
O216        O  0.50727976  0.25284735  0.88694409    -0.60500
H217        H  0.58399777  0.24333973  0.06888011     0.16400
O218        O  0.49603829  0.24177224  0.09520908    -0.60600
H219        H  0.49526347  0.21852795  0.10452315     0.43400
H220        H  0.50529890  0.27593255  0.87637416     0.43300
C221        C  0.03572509  0.24180147  0.00363497    -0.05700
C222        C  0.99047191  0.25312035  0.96239465    -0.33100
C223        C  0.93998156  0.25659322  0.97082158     0.36100
C224        C  0.93243346  0.24842648  0.02146376    -0.06100
C225        C  0.97798704  0.23771626  0.06313655    -0.33000
C226        C  0.02885100  0.23461303  0.05479897     0.36000
H227        H  0.99392384  0.25946098  0.92274010     0.16400
O228        O  0.89782646  0.26706289  0.92829428    -0.60500
H229        H  0.97402845  0.23083795  0.10244869     0.16400
O230        O  0.07109909  0.22386275  0.09695005    -0.60600
H231        H  0.08802855  0.24313428  0.11603322     0.43400
H232        H  0.89958423  0.29052388  0.93014370     0.43300
C233        C  0.39896385  0.09770896  0.99264632    -0.05700
C234        C  0.39123154  0.10064233  0.04294351    -0.33100
C235        C  0.36253815  0.12567262  0.05181675     0.36100
C236        C  0.34107285  0.14876552  0.01024681    -0.06100
C237        C  0.34846340  0.14569924  0.95987882    -0.33000
C238        C  0.37704259  0.12066329  0.95096953     0.36000
H239        H  0.40603001  0.08284306  0.07529951     0.16400
O240        O  0.35561926  0.12721678  0.10130995    -0.60500
H241        H  0.33365248  0.16348239  0.92749776     0.16400
O242        O  0.38340800  0.11901008  0.90127454    -0.60600
H243        H  0.41882122  0.13038392  0.90341051     0.43400
H244        H  0.32079260  0.11513293  0.09919166     0.43300
C245        C  0.64010207  0.35788613  0.00164698    -0.05700
C246        C  0.60542916  0.37508031  0.95792556    -0.33100
C247        C  0.57924978  0.40161169  0.96511328     0.36100
C248        C  0.58772782  0.41220057  0.01702100    -0.06100
C249        C  0.62036623  0.39416029  0.06099069    -0.33000
C250        C  0.64596474  0.36726690  0.05379119     0.36000
H251        H  0.59869025  0.36818312  0.91742987     0.16400
O252        O  0.54713615  0.41766964  0.92052993    -0.60500
H253        H  0.62786103  0.40151938  0.10133493     0.16400
O254        O  0.67752739  0.35085057  0.09823586    -0.60600
H255        H  0.65243932  0.33449451  0.10849805     0.43400
H256        H  0.50994455  0.40806623  0.91549899     0.43300
C257        C  0.70773775  0.50873983  0.99833999    -0.05700
C258        C  0.71282597  0.00889157  0.94715015    -0.33100
C259        C  0.76288970  0.00522364  0.93718090     0.36100
C260        C  0.81045394  0.50124718  0.97971323    -0.06100
C261        C  0.80686770  0.50403375  0.03158196    -0.33000
C262        C  0.75704108  0.50807681  0.04101369     0.36000
H263        H  0.67672610  0.01214190  0.91332577     0.16400
O264        O  0.76384851  0.00694773  0.88510272    -0.60500
H265        H  0.84347593  0.50436263  0.06528972     0.16400
O266        O  0.75748203  0.51176788  0.09259397    -0.60600
H267        H  0.76243702  0.53505175  0.09684845     0.43400
H268        H  0.76063763  0.98453192  0.87514812     0.43300
C269        C  0.18858730  0.49741972  0.01831110    -0.05700
C270        C  0.19430230  0.99806547  0.96733647    -0.33100
C271        C  0.24529930  0.99854135  0.95867426     0.36100
C272        C  0.29427424  0.49607290  0.00416306    -0.06100
C273        C  0.28807243  0.50475067  0.05279404    -0.33000
C274        C  0.23612669  0.50537892  0.06008652     0.36000
H275        H  0.15855837  0.99836740  0.93259002     0.16400
O276        O  0.24665377  0.99972750  0.90671766    -0.60500
H277        H  0.32358009  0.51149447  0.08520987     0.16400
O278        O  0.23256678  0.51355316  0.10839480    -0.60600
H279        H  0.23049576  0.53704610  0.10498690     0.43400
H280        H  0.24409698  0.02255799  0.89435740     0.43300
C281        C  0.90855660  0.09886870  0.99788028    -0.05700
C282        C  0.89061293  0.09827796  0.04341831    -0.33100
C283        C  0.85758945  0.12175447  0.04946485     0.36100
C284        C  0.84141528  0.14654427  0.00939580    -0.06100
C285        C  0.85957493  0.14722731  0.96404293    -0.33000
C286        C  0.89258900  0.12379935  0.95798632     0.36000
H287        H  0.90076272  0.07897465  0.07395683     0.16400
O288        O  0.84007297  0.11963884  0.09402432    -0.60500
H289        H  0.84930910  0.16650328  0.93346231     0.16400
O290        O  0.90973364  0.12591709  0.91320111    -0.60600
H291        H  0.87810060  0.11814860  0.88398211     0.43400
H292        H  0.87171947  0.12708754  0.12352531     0.43300
C293        C  0.10449749  0.38991009  0.99798550    -0.05700
C294        C  0.14049689  0.37328981  0.04153661    -0.33100
C295        C  0.16691214  0.34688149  0.03431083     0.36100
C296        C  0.15730155  0.33580818  0.98259787    -0.06100
C297        C  0.12379324  0.35348982  0.93864362    -0.33000
C298        C  0.09802676  0.38032935  0.94586347     0.36000
H299        H  0.14793147  0.38044617  0.08199014     0.16400
O300        O  0.20029254  0.33134005  0.07872617    -0.60500
H301        H  0.11559962  0.34580876  0.89839927     0.16400
O302        O  0.06568622  0.39646124  0.90153876    -0.60600
H303        H  0.09008427  0.41325820  0.89124859     0.43400
H304        H  0.23690676  0.34171838  0.08336644     0.43300
C305        C  0.74169365  0.24132628  0.70000279    -0.05700
C306        C  0.68978351  0.24483275  0.70461910    -0.33100
C307        C  0.68174773  0.24469497  0.75535424     0.36100
C308        C  0.72598797  0.24048105  0.80257626    -0.06100
C309        C  0.77690993  0.23473674  0.79727349    -0.33000
C310        C  0.78486842  0.23507807  0.74693544     0.36000
H311        H  0.65582954  0.24897791  0.66897368     0.16400
O312        O  0.63064448  0.24896067  0.75811682    -0.60500
H313        H  0.81154272  0.23085925  0.83240914     0.16400
O314        O  0.83558051  0.22969341  0.74415215    -0.60600
H315        H  0.83498691  0.20652969  0.73963520     0.43400
H316        H  0.62645603  0.27229289  0.75315034     0.43300
C317        C  0.76355324  0.24532185  0.30966667    -0.05700
C318        C  0.71679007  0.23952992  0.26647686    -0.33100
C319        C  0.71733155  0.24536967  0.21354282     0.36100
C320        C  0.76553643  0.25680645  0.20247632    -0.06100
C321        C  0.81266092  0.26228628  0.24546151    -0.33000
C322        C  0.81186951  0.25687749  0.29871787     0.36000
H323        H  0.67909691  0.23068929  0.27359792     0.16400
O324        O  0.67105245  0.23822349  0.17291168    -0.60500
H325        H  0.85021848  0.27081690  0.23775892     0.16400
O326        O  0.85855534  0.26284700  0.33952751    -0.60600
H327        H  0.87697427  0.24240949  0.34796328     0.43400
H328        H  0.64877307  0.25710685  0.16734816     0.43300
C329        C  0.25472951  0.23984806  0.69989340    -0.05700
C330        C  0.20143725  0.24078962  0.70232485    -0.33100
C331        C  0.19150418  0.24213020  0.75157553     0.36100
C332        C  0.23516644  0.24162668  0.79936329    -0.06100
C333        C  0.28826744  0.23982185  0.79688815    -0.33000
C334        C  0.29828979  0.23908672  0.74780558     0.36000
H335        H  0.16747689  0.24119791  0.66591285     0.16400
O336        O  0.13895111  0.24287371  0.75265778    -0.60500
H337        H  0.32239264  0.23936108  0.83319580     0.16400
O338        O  0.35091184  0.23758641  0.74725010    -0.60600
H339        H  0.35645628  0.21459001  0.74687984     0.43400
H340        H  0.12971107  0.26551096  0.74453306     0.43300
C341        C  0.25400030  0.24239059  0.30353531    -0.05700
C342        C  0.29852269  0.22927198  0.29489112    -0.33100
C343        C  0.30035995  0.22638900  0.24271891     0.36100
C344        C  0.25720046  0.23704892  0.19847848    -0.06100
C345        C  0.21365164  0.25124004  0.20776062    -0.33000
C346        C  0.21178209  0.25381342  0.25968579     0.36000
H347        H  0.33060298  0.21995120  0.32847173     0.16400
O348        O  0.34467277  0.21348651  0.23559103    -0.60500
H349        H  0.18034477  0.26001476  0.17467637     0.16400
O350        O  0.16780743  0.26689875  0.26724459    -0.60600
H351        H  0.17853186  0.28977444  0.27203740     0.43400
H352        H  0.33792253  0.19010207  0.23929589     0.43300
C353        C  0.45579637  0.24362411  0.50186677    -0.05700
C354        C  0.49539388  0.26505023  0.53193717    -0.33100
C355        C  0.54386310  0.27192418  0.52025004     0.36100
C356        C  0.55289895  0.25763165  0.47745377    -0.06100
C357        C  0.51255148  0.23730149  0.44592693    -0.33000
C358        C  0.46423827  0.23006881  0.45803874     0.36000
H359        H  0.48896409  0.27668815  0.56472462     0.16400
O360        O  0.58230625  0.29241446  0.55099234    -0.60500
H361        H  0.51977121  0.22524764  0.41392103     0.16400
O362        O  0.42703762  0.20845544  0.42879081    -0.60600
H363        H  0.41347260  0.21888690  0.39239636     0.43400
H364        H  0.59880940  0.28012548  0.58525543     0.43300
C365        C  0.95909723  0.23827477  0.52385057    -0.05700
C366        C  0.99919865  0.26119554  0.54826309    -0.33100
C367        C  0.04875520  0.26388865  0.53758449     0.36100
C368        C  0.05817730  0.24366127  0.50171266    -0.06100
C369        C  0.01881430  0.22008134  0.47870423    -0.33000
C370        C  0.96942381  0.21727152  0.48950089     0.36000
H371        H  0.99152786  0.27785283  0.57422156     0.16400
O372        O  0.08648804  0.28730291  0.56019298    -0.60500
H373        H  0.02649481  0.20350256  0.45260747     0.16400
O374        O  0.93205859  0.19357903  0.46723595    -0.60600
H375        H  0.91529246  0.20121989  0.42943552     0.43400
H376        H  0.10470917  0.27880719  0.59717258     0.43300
C377        C  0.49512761  0.50697483  0.69880304    -0.05700
C378        C  0.44438100  0.50987806  0.70643834    -0.33100
C379        C  0.44038361  0.51303773  0.75785330     0.36100
C380        C  0.48751374  0.51250898  0.80253923    -0.06100
C381        C  0.53350624  0.00179723  0.79434649    -0.33000
C382        C  0.53575373  0.99912805  0.74252105     0.36000
H383        H  0.40792088  0.51006131  0.67245723     0.16400
O384        O  0.39022383  0.51599389  0.76403203    -0.60500
H385        H  0.56914096  0.99645755  0.82771609     0.16400
O386        O  0.58230544  0.98926597  0.73529361    -0.60600
H387        H  0.60697387  0.00858651  0.73822776     0.43400
H388        H  0.37627687  0.49388299  0.76949441     0.43300
C389        C  0.49154537  0.50282754  0.30437993    -0.05700
C390        C  0.54443105  0.50312866  0.30034901    -0.33100
C391        C  0.55321991  0.50373051  0.25016584     0.36100
C392        C  0.50882710  0.50493057  0.20294198    -0.06100
C393        C  0.45615517  0.50600156  0.20701590    -0.33000
C394        C  0.44723246  0.50452936  0.25709618     0.36000
H395        H  0.57899824  0.50201525  0.33622074     0.16400
O396        O  0.60543671  0.50407706  0.24768658    -0.60500
H397        H  0.42150557  0.50720523  0.17121847     0.16400
O398        O  0.39511239  0.50565005  0.25937209    -0.60600
H399        H  0.37859302  0.48388489  0.25210791     0.43400
H400        H  0.61545686  0.48152612  0.25408596     0.43300
C401        C  0.35497185  0.33692919  0.51305000    -0.05700
C402        C  0.35992004  0.34804193  0.46270269    -0.33100
C403        C  0.38269501  0.37857716  0.45451932     0.36100
C404        C  0.40157011  0.39921890  0.49715190    -0.06100
C405        C  0.39699202  0.38803441  0.54760300    -0.33000
C406        C  0.37449171  0.35742317  0.55586309     0.36000
H407        H  0.34660499  0.33285276  0.42923017     0.16400
O408        O  0.38629055  0.38780641  0.40438986    -0.60500
H409        H  0.41031874  0.40323370  0.58106370     0.16400
O410        O  0.37132216  0.34808679  0.60610347    -0.60600
H411        H  0.40769256  0.34038078  0.62623746     0.43400
H412        H  0.35018134  0.39581775  0.38412652     0.43300
C413        C  0.59702210  0.09209174  0.51179162    -0.05700
C414        C  0.59736986  0.10260336  0.45972073    -0.33100
C415        C  0.62114380  0.13239349  0.44938080     0.36100
C416        C  0.64565100  0.15267291  0.49155634    -0.06100
C417        C  0.64479937  0.14224925  0.54357011    -0.33000
C418        C  0.62108626  0.11244568  0.55389865     0.36000
H419        H  0.58011418  0.08737525  0.42669816     0.16400
O420        O  0.62106246  0.14100817  0.39788014    -0.60500
H421        H  0.66206352  0.15741141  0.57668013     0.16400
O422        O  0.62066177  0.10386566  0.60528013    -0.60600
H423        H  0.65737642  0.09617883  0.62405656     0.43400
H424        H  0.58486039  0.14961477  0.37991842     0.43300
C425        C  0.97784761  0.48985897  0.79939128    -0.05700
C426        C  0.92922218  0.98444824  0.75658831    -0.33100
C427        C  0.93069744  0.98843274  0.70348739     0.36100
C428        C  0.98024849  0.99711152  0.69292212    -0.06100
C429        C  0.02927239  0.50118602  0.73596773    -0.33000
C430        C  0.02780367  0.49690924  0.78870218     0.36000
H431        H  0.89075179  0.97831987  0.76417188     0.16400
O432        O  0.88333890  0.98480938  0.66242562    -0.60500
H433        H  0.06824058  0.50645848  0.72897305     0.16400
O434        O  0.07556269  0.50025758  0.82943780    -0.60600
H435        H  0.07953078  0.52317642  0.83666897     0.43400
H436        H  0.87852881  0.96164141  0.65708480     0.43300
C437        C  0.01286234  0.99759376  0.19929552    -0.05700
C438        C  0.05774844  0.99348107  0.24552816    -0.33100
C439        C  0.05163759  0.99256876  0.29708856     0.36100
C440        C  0.00014962  0.49702191  0.30228130    -0.06100
C441        C  0.95514543  0.50056308  0.25643948    -0.33000
C442        C  0.96089466  0.50263260  0.20525347     0.36000
H443        H  0.09763415  0.99043196  0.24183133     0.16400
O444        O  0.09610068  0.98792397  0.34101614    -0.60500
H445        H  0.91470276  0.50160886  0.26008887     0.16400
O446        O  0.91491356  0.50493008  0.16223562    -0.60600
H447        H  0.90857293  0.52802170  0.15585609     0.43400
H448        H  0.09963035  0.96454113  0.34561760     0.43300
C449        C  0.69131087  0.48763700  0.51398689    -0.05700
C450        C  0.73235811  0.50837132  0.54321904    -0.33100
C451        C  0.78016246  0.51425272  0.52984230     0.36100
C452        C  0.78788653  0.49843524  0.48756647    -0.06100
C453        C  0.74557885  0.97549391  0.46236699    -0.33000
C454        C  0.69708383  0.97070650  0.47506754     0.36000
H455        H  0.72624462  0.52131186  0.57486201     0.16400
O456        O  0.81870142  0.53558217  0.55819731    -0.60500
H457        H  0.74994973  0.96332051  0.42918106     0.16400
O458        O  0.65600806  0.95160104  0.44453672    -0.60600
H459        H  0.66009253  0.93034116  0.46392804     0.43400
H460        H  0.81114072  0.55627603  0.53734418     0.43300
C461        C  0.29169254  0.49157839  0.50396689    -0.05700
C462        C  0.25512418  0.46622589  0.48274024    -0.33100
C463        C  0.20529332  0.46213640  0.49285374     0.36100
C464        C  0.19245051  0.97994692  0.52980969    -0.06100
C465        C  0.22991684  0.00394206  0.55464807    -0.33000
C466        C  0.27874442  0.00971405  0.54304228     0.36000
H467        H  0.26499434  0.44961887  0.45801429     0.16400
O468        O  0.16981877  0.43742736  0.47160167    -0.60500
H469        H  0.21979923  0.01981300  0.58036999     0.16400
O470        O  0.31261736  0.03496215  0.56471069    -0.60600
H471        H  0.32622403  0.02927024  0.60368559     0.43400
H472        H  0.15402970  0.44386270  0.43310745     0.43300
C473        C  0.85147486  0.33967959  0.51316980    -0.05700
C474        C  0.84948036  0.35043713  0.46047391    -0.33100
C475        C  0.87056868  0.38081380  0.44905077     0.36100
C476        C  0.89499237  0.40139917  0.49072344    -0.06100
C477        C  0.89697441  0.39063966  0.54339120    -0.33000
C478        C  0.87586551  0.36027570  0.55480303     0.36000
H479        H  0.83152601  0.33519756  0.42759685     0.16400
O480        O  0.86652118  0.39006794  0.39676478    -0.60500
H481        H  0.91488791  0.40588600  0.57626361     0.16400
O482        O  0.87981210  0.35105089  0.60706568    -0.60600
H483        H  0.91564956  0.34144510  0.62179826     0.43400
H484        H  0.83056266  0.39953206  0.38202510     0.43300
C485        C  0.10213390  0.08561474  0.50922732    -0.05700
C486        C  0.13300428  0.10289674  0.55316825    -0.33100
C487        C  0.15915602  0.13246209  0.54608148     0.36100
C488        C  0.15559339  0.14568105  0.49406084    -0.06100
C489        C  0.12514033  0.12828110  0.45004772    -0.33000
C490        C  0.09871462  0.09872691  0.45715890     0.36000
H491        H  0.13736231  0.09345384  0.59375636     0.16400
O492        O  0.18839332  0.14803189  0.59063398    -0.60500
H493        H  0.12056349  0.13790656  0.40951646     0.16400
O494        O  0.06877342  0.08331969  0.41268151    -0.60600
H495        H  0.09516308  0.07101799  0.40274238     0.43400
H496        H  0.16126287  0.15928970  0.60128013     0.43300
O497        O  0.94171770  0.98384721  0.35610348    -0.81100
O498        O  0.95083954  0.98726259  0.60001289    -0.65800
O499        O  0.95390967  0.50721761  0.45515245    -1.12400
C500        C  0.13784471  0.48413721  0.52900839     1.05700
O501        O  0.02585025  0.51919463  0.62974758    -0.79000
O502        O  0.08163400  0.54613597  0.56507878    -0.66600
Ni503      Ni  0.89708465  0.98528296  0.40212293     1.34900
C504        C  0.07566210  0.55564672  0.51664073     0.84500
O505        O  0.88115034  0.51232811  0.51145638    -0.79600
O506        O  0.84310635  0.98540015  0.43896022    -0.89900
C507        C  0.98631540  0.50235686  0.63782176     0.84100
O508        O  0.91567657  0.94355562  0.43298016    -0.68100
O509        O  0.13357529  0.49214267  0.57319940    -0.87300
C510        C  0.91398448  0.93391268  0.47961245     0.84900
C511        C  0.83976899  0.99836590  0.47984542     1.06500
H512        H  0.02291980  0.96073449  0.54936352     0.38300
O513        O  0.02238969  0.98354239  0.54191669    -1.10000
O514        O  0.05460304  0.53773972  0.47795543    -0.66700
Ni515      Ni  0.02644619  0.49401712  0.46945210     1.26300
O516        O  0.92286019  0.95292662  0.51723508    -0.66900
O517        O  0.09840242  0.97865852  0.48911060    -0.79200
C518        C  0.98963554  0.99281577  0.35598628     0.84300
O519        O  0.02699084  0.50198472  0.39696380    -0.66400
Ni520      Ni  0.07718052  0.50467307  0.59849730     1.27400
Ni521      Ni  0.95094262  0.99674886  0.52792488     1.26100
H522        H  0.95237961  0.52990323  0.44672710     0.38800
O523        O  0.43651165  0.98807181  0.36032566    -0.81100
O524        O  0.45971314  0.98947423  0.60888054    -0.65800
O525        O  0.45089519  0.50757640  0.46239979    -1.12400
C526        C  0.63716189  0.98761107  0.52534052     1.05700
O527        O  0.53820369  0.52042983  0.63236410    -0.79000
O528        O  0.59753419  0.54430647  0.56843021    -0.66600
Ni529      Ni  0.39424155  0.98766419  0.40903510     1.34900
C530        C  0.57947856  0.55808744  0.52227191     0.84500
O531        O  0.38153820  0.01021379  0.52444453    -0.79600
O532        O  0.34312532  0.98553139  0.44923039    -0.89900
C533        C  0.49435636  0.00517624  0.64408651     0.84100
O534        O  0.41772916  0.94661932  0.43886852    -0.68100
O535        O  0.63521609  0.99040022  0.57269082    -0.87300
C536        C  0.41612471  0.93595297  0.48500113     0.84900
C537        C  0.34092000  0.99674951  0.49200842     1.06500
H538        H  0.52696914  0.96485886  0.54802021     0.38300
O539        O  0.52504560  0.98773365  0.54306841    -1.10000
O540        O  0.54549345  0.54422783  0.48340899    -0.66700
Ni541      Ni  0.52339450  0.99946379  0.47142945     1.26300
O542        O  0.42701632  0.95410970  0.52424541    -0.66900
O543        O  0.59654715  0.98935280  0.48329705    -0.79200
C544        C  0.48194686  0.00039215  0.35776574     0.79500
O545        O  0.51783326  0.51167635  0.39724989    -0.66400
Ni546      Ni  0.58547741  0.50302222  0.59925180     1.27400
Ni547      Ni  0.45309986  0.99861576  0.53486927     1.26100
H548        H  0.44485043  0.53003343  0.45479381     0.38800
O549        O  0.21405451  0.71831768  0.37173619    -0.81100
O550        O  0.22777643  0.72969906  0.60302149    -0.65800
O551        O  0.22169800  0.75347281  0.45913968    -1.12400
C552        C  0.40623785  0.74408014  0.51337632     1.05700
O553        O  0.30505369  0.75730492  0.63913933    -0.79000
O554        O  0.32796701  0.79631108  0.56067809    -0.66600
Ni555      Ni  0.16497661  0.73661100  0.40154980     1.34900
C556        C  0.32895368  0.80646017  0.51416651     0.84500
O557        O  0.14954371  0.74947263  0.51810592    -0.79600
O558        O  0.11262205  0.75351470  0.42816784    -0.89900
C559        C  0.26202891  0.74209065  0.64278369     0.84100
O560        O  0.15107508  0.69568848  0.43286314    -0.68100
O561        O  0.40306242  0.75559310  0.55564745    -0.87300
C562        C  0.16853235  0.68245823  0.47955930     0.84900
C563        C  0.10990286  0.75371214  0.47583107     1.06500
H564        H  0.30256904  0.71012013  0.54822648     0.38300
O565        O  0.29698046  0.73259512  0.54019420    -1.10000
O566        O  0.31897117  0.78776979  0.47578635    -0.66700
Ni567      Ni  0.29375317  0.74301382  0.46716851     1.26300
O568        O  0.20215606  0.69660977  0.51815578    -0.66900
O569        O  0.36567408  0.73207317  0.47860700    -0.79200
C570        C  0.25114488  0.73471247  0.35808930     0.84300
O571        O  0.28623790  0.75102247  0.39227735    -0.66400
Ni572      Ni  0.35018939  0.75559181  0.59333034     1.27400
Ni573      Ni  0.22321019  0.74095111  0.53034332     1.26100
H574        H  0.21961601  0.77635508  0.45485550     0.38800
O575        O  0.72016761  0.72357169  0.36923665    -0.81100
O576        O  0.72385162  0.73574940  0.60536965    -0.65800
O577        O  0.72503017  0.75534014  0.46126879    -1.12400
C578        C  0.90808836  0.73969056  0.52082405     1.05700
O579        O  0.80716146  0.75544514  0.64576979    -0.79000
O580        O  0.83660730  0.79467809  0.56993716    -0.66600
Ni581      Ni  0.66994119  0.73763584  0.40248769     1.34900
C582        C  0.83669738  0.80459764  0.52294648     0.84500
O583        O  0.65148045  0.75793936  0.51766211    -0.79600
O584        O  0.61475401  0.75004717  0.42969723    -0.89900
C585        C  0.76035686  0.74473756  0.64691252     0.84100
O586        O  0.66366537  0.69560474  0.43331188    -0.68100
O587        O  0.90546522  0.75083904  0.56349232    -0.87300
C588        C  0.67102614  0.68480227  0.48136482     0.84900
C589        C  0.61148382  0.75616881  0.47528000     1.06500
H590        H  0.79713501  0.70918136  0.55188730     0.38300
O591        O  0.79555507  0.73197560  0.54476856    -1.10000
O592        O  0.82482995  0.78609590  0.48442192    -0.66700
Ni593      Ni  0.79635980  0.74257357  0.47270034     1.26300
O594        O  0.69476777  0.70130202  0.52145529    -0.66900
O595        O  0.86686316  0.72876857  0.48581109    -0.79200
C596        C  0.75936380  0.74078225  0.36107570     0.84300
O597        O  0.79428852  0.75337822  0.40001358    -0.66400
Ni598      Ni  0.85189826  0.75236869  0.60000520     1.27400
Ni599      Ni  0.72318822  0.74486323  0.53258361     1.26100
H600        H  0.72432778  0.77822152  0.45523979     0.38800
O601        O  0.93264263  0.49351572  0.86561086    -0.81100
O602        O  0.97834701  0.50603136  0.10349264    -0.65800
O603        O  0.99156448  0.51639977  0.96378771    -1.12400
C604        C  0.07626454  0.91496715  0.00585327     1.05700
O605        O  0.06357092  0.98753056  0.14002546    -0.79000
O606        O  0.12726279  0.98512689  0.07221282    -0.66600
Ni607      Ni  0.93253513  0.53040312  0.90436623     1.34900
C608        C  0.13282629  0.98970003  0.02560254     0.84500
O609        O  0.95343469  0.55365643  0.02720470    -0.79600
O610        O  0.92984399  0.56836492  0.93892058    -0.89900
C611        C  0.01859161  0.49972670  0.14404440     0.84100
O612        O  0.87087274  0.51368155  0.92655401    -0.68100
O613        O  0.09129746  0.92413100  0.05370930    -0.87300
C614        C  0.86702595  0.00122820  0.97200162     0.84900
C615        C  0.93270633  0.57303355  0.98722624     1.06500
H616        H  0.98268513  0.95171205  0.03678883     0.38300
O617        O  0.01101966  0.96771993  0.03570451    -1.10000
O618        O  0.09263504  0.98635763  0.98332726    -0.66700
Ni619      Ni  0.01668829  0.97153354  0.96495201     1.26300
O620        O  0.90740587  0.49512159  0.01107507    -0.66900
O621        O  0.04084489  0.92922175  0.96763045    -0.79200
C622        C  0.97512209  0.98496353  0.85535046     0.84300
O623        O  0.01724252  0.97731227  0.89277131    -0.66400
Ni624      Ni  0.07464941  0.95686566  0.09316498     1.27400
Ni625      Ni  0.98240340  0.51220461  0.03269169     1.26100
H626        H  0.02163977  0.53162928  0.96532231     0.38800
O627        O  0.55585150  0.98922087  0.14477989    -0.81100
O628        O  0.52011867  0.99858900  0.89610754    -0.65800
O629        O  0.54436005  0.51691054  0.04007361    -1.12400
C630        C  0.34905585  0.99942490  0.99349258     1.05700
O631        O  0.44915294  0.52914483  0.86733044    -0.79000
O632        O  0.40157181  0.55536573  0.93410662    -0.66600
Ni633      Ni  0.60008452  0.99663424  0.09700685     1.34900
C634        C  0.42130585  0.56739446  0.97937081     0.84500
O635        O  0.61137302  0.01597482  0.97186845    -0.79600
O636        O  0.65277902  0.00207284  0.05773570    -0.89900
C637        C  0.48472535  0.51315903  0.85772220     0.84100
O638        O  0.58256442  0.95441897  0.07350608    -0.68100
O639        O  0.35029792  0.00272412  0.94509735    -0.87300
C640        C  0.57127387  0.94505969  0.02628089     0.84900
C641        C  0.65440960  0.00930754  0.01012686     1.06500
H642        H  0.45368568  0.97528223  0.96627415     0.38300
O643        O  0.46078753  0.99805589  0.96748260    -1.10000
O644        O  0.45457882  0.55303288  0.01917342    -0.66700
Ni645      Ni  0.46907200  0.00830905  0.03851659     1.26300
O646        O  0.55137631  0.96306776  0.98459878    -0.66900
O647        O  0.39251438  0.99951259  0.03364979    -0.79200
C648        C  0.51664677  0.00383905  0.15029125     0.84300
O649        O  0.48309490  0.51909333  0.11007472    -0.66400
Ni650      Ni  0.40235906  0.51378781  0.90981322     1.27400
Ni651      Ni  0.53533074  0.00735794  0.96895468     1.26100
H652        H  0.55320795  0.53949894  0.04244695     0.38800
O653        O  0.29155202  0.71581544  0.12915391    -0.81100
O654        O  0.25732519  0.72693550  0.88788760    -0.65800
O655        O  0.27891086  0.74861921  0.03002537    -1.12400
C656        C  0.08738401  0.73854892  0.99046221     1.05700
O657        O  0.18219987  0.75377646  0.85195317    -0.79000
O658        O  0.16436162  0.79194143  0.92522651    -0.66600
Ni659      Ni  0.33797253  0.73272910  0.08738460     1.34900
C660        C  0.17197131  0.80095201  0.97225455     0.84500
O661        O  0.34699773  0.74600438  0.96338810    -0.79600
O662        O  0.38984466  0.74876405  0.05127440    -0.89900
C663        C  0.22259351  0.73963366  0.84784211     0.84100
O664        O  0.34165473  0.69172439  0.06240557    -0.68100
O665        O  0.08937191  0.74789375  0.94362565    -0.87300
C666        C  0.32200537  0.67953693  0.01727828     0.84900
C667        C  0.39056378  0.74954610  0.00274478     1.06500
H668        H  0.18671691  0.70567477  0.95461727     0.38300
O669        O  0.19531055  0.72826648  0.95746761    -1.10000
O670        O  0.18723823  0.78213388  0.01389641    -0.66700
Ni671      Ni  0.20496588  0.73800407  0.02969082     1.26300
O672        O  0.28668514  0.69310287  0.97819297    -0.66900
O673        O  0.12938202  0.72841976  0.02684088    -0.79200
C674        C  0.25638696  0.73147053  0.14009423     0.84300
O675        O  0.22033745  0.74600225  0.10341905    -0.66400
Ni676      Ni  0.14026225  0.75000633  0.90222709     1.27400
Ni677      Ni  0.27056505  0.73722891  0.95956627     1.26100
H678        H  0.28439846  0.77151945  0.02969575     0.38800
O679        O  0.67846782  0.75693128  0.85854716    -0.81100
O680        O  0.72354083  0.76943185  0.10523246    -0.65800
O681        O  0.73017053  0.77822725  0.96209650    -1.12400
C682        C  0.80917050  0.67638389  0.01210509     1.05700
O683        O  0.80869515  0.75643153  0.13128914    -0.79000
O684        O  0.86962282  0.73498593  0.07114962    -0.66600
Ni685      Ni  0.66701260  0.78858012  0.90392298     1.34900
C686        C  0.87475511  0.74712240  0.02690322     0.84500
O687        O  0.70034430  0.81700174  0.02873123    -0.79600
O688        O  0.65090784  0.82226700  0.94211356    -0.89900
C689        C  0.76606118  0.76224142  0.14257887     0.84100
O690        O  0.61334982  0.76129354  0.92542246    -0.68100
O691        O  0.80998494  0.68071565  0.05996670    -0.87300
C692        C  0.60782576  0.75735500  0.97215772     0.84900
C693        C  0.66600383  0.83154513  0.98997113     1.06500
H694        H  0.71887644  0.71763879  0.03239934     0.38300
O695        O  0.74910363  0.73279464  0.03418459    -1.10000
O696        O  0.83353657  0.75515365  0.98778403    -0.66700
Ni697      Ni  0.75922989  0.73715589  0.96560497     1.26300
O698        O  0.64833132  0.76015514  0.01436653    -0.66900
O699        O  0.78948668  0.69593679  0.97198718    -0.79200
C700        C  0.72351892  0.74894625  0.85384432     0.84300
O701        O  0.76382456  0.74328491  0.89483439    -0.66400
Ni702      Ni  0.80805576  0.71898304  0.09380933     1.27400
Ni703      Ni  0.72442534  0.77480751  0.03276258     1.26100
H704        H  0.75813431  0.79446019  0.96090425     0.38800
C705        C  0.44553822  0.75297407  0.99308511    -0.05700
C706        C  0.45207232  0.74530825  0.94404279    -0.33100
C707        C  0.50413409  0.74556783  0.93656048     0.36100
C708        C  0.55169067  0.75286101  0.97885070    -0.06100
C709        C  0.54482111  0.76056085  0.02756026    -0.33000
C710        C  0.49324121  0.76086415  0.03479836     0.36000
H711        H  0.41672478  0.73871215  0.91135015     0.16400
O712        O  0.50788484  0.73811123  0.88794642    -0.60500
H713        H  0.57981459  0.76742622  0.06042525     0.16400
O714        O  0.49021090  0.76988345  0.08286302    -0.60600
H715        H  0.49967589  0.75088661  0.10800250     0.43400
H716        H  0.50065868  0.75806187  0.86486096     0.43300
C717        C  0.03382625  0.74137650  0.00181413    -0.05700
C718        C  0.99011432  0.75538464  0.96188330    -0.33100
C719        C  0.93976078  0.75936252  0.97037407     0.36100
C720        C  0.93083980  0.74906552  0.01970820    -0.06100
C721        C  0.97498105  0.73586468  0.06020806    -0.33000
C722        C  0.02566355  0.73222485  0.05184573     0.36000
H723        H  0.99462598  0.76337278  0.92317395     0.16400
O724        O  0.89901582  0.77238668  0.92908480    -0.60500
H725        H  0.96998344  0.72740490  0.09853507     0.16400
O726        O  0.06645944  0.71906110  0.09280822    -0.60600
H727        H  0.08306638  0.73688578  0.11586334     0.43400
H728        H  0.90367376  0.79565946  0.93342696     0.43300
C729        C  0.40029908  0.59805115  0.98793383    -0.05700
C730        C  0.40688059  0.60622158  0.04060710    -0.33100
C731        C  0.37981494  0.63149690  0.05094802     0.36100
C732        C  0.34512716  0.64968528  0.00827404    -0.06100
C733        C  0.33920321  0.64185000  0.95553173    -0.33000
C734        C  0.36647414  0.61662068  0.94518261     0.36000
H735        H  0.43181667  0.59227576  0.07443726     0.16400
O736        O  0.38793703  0.63815095  0.10320307    -0.60500
H737        H  0.31430015  0.65586181  0.92176930     0.16400
O738        O  0.35914372  0.61024255  0.89293735    -0.60600
H739        H  0.38888349  0.62266833  0.88279683     0.43400
H740        H  0.35838694  0.62590012  0.11392830     0.43300
C741        C  0.64016445  0.85977813  0.00084417    -0.05700
C742        C  0.59610174  0.87285836  0.96055151    -0.33100
C743        C  0.57032258  0.89912790  0.96930785     0.36100
C744        C  0.58825363  0.91312466  0.01921374    -0.06100
C745        C  0.63073342  0.89925000  0.06018830    -0.33000
C746        C  0.65660688  0.87302050  0.05145773     0.36000
H747        H  0.58155394  0.86289076  0.92161654     0.16400
O748        O  0.52880954  0.91151051  0.92804717    -0.60500
H749        H  0.64614301  0.90975599  0.09863915     0.16400
O750        O  0.69954994  0.86157130  0.09216121    -0.60600
H751        H  0.68298157  0.84684047  0.11482668     0.43400
H752        H  0.49522325  0.90040999  0.93246388     0.43300
C753        C  0.70894853  0.00805859  0.99971798    -0.05700
C754        C  0.71105758  0.50599838  0.94620350    -0.33100
C755        C  0.76140583  0.50245488  0.93673162     0.36100
C756        C  0.81126802  0.00024137  0.98002556    -0.06100
C757        C  0.80714392  0.99918288  0.03234082    -0.33000
C758        C  0.75759946  0.00329285  0.04240017     0.36000
H759        H  0.67433481  0.50613743  0.91249463     0.16400
O760        O  0.76201318  0.50041431  0.88505337    -0.60500
H761        H  0.84317705  0.99620718  0.06625942     0.16400
O762        O  0.75771629  0.00264295  0.09474973    -0.60600
H763        H  0.76739294  0.02484984  0.10544108     0.43400
H764        H  0.75433080  0.47754268  0.87794202     0.43300
C765        C  0.18876474  0.99602214  0.01918618    -0.05700
C766        C  0.19509433  0.48898678  0.96988585    -0.33100
C767        C  0.24648594  0.48814227  0.96265132     0.36100
C768        C  0.29378007  0.99704326  0.00238346    -0.06100
C769        C  0.28854984  0.99579680  0.05444066    -0.33000
C770        C  0.23708406  0.99521578  0.06303869     0.36000
H771        H  0.15999609  0.48177326  0.93739549     0.16400
O772        O  0.24927272  0.47835033  0.91497339    -0.60500
H773        H  0.32453877  0.99513959  0.08892414     0.16400
O774        O  0.23473099  0.99263908  0.11467563    -0.60600
H775        H  0.24019290  0.01474203  0.12638692     0.43400
H776        H  0.23946750  0.49698644  0.88906809     0.43300
C777        C  0.90535797  0.60079945  0.99615440    -0.05700
C778        C  0.87726513  0.59749325  0.03457210    -0.33100
C779        C  0.84382981  0.62121672  0.03881229     0.36100
C780        C  0.83763975  0.64885563  0.00403954    -0.06100
C781        C  0.86609045  0.65226128  0.96591472    -0.33000
C782        C  0.89953312  0.62854083  0.96169109     0.36000
H783        H  0.87971770  0.57591870  0.06033559     0.16400
O784        O  0.81596388  0.61666441  0.07588174    -0.60500
H785        H  0.86363415  0.67382245  0.94012639     0.16400
O786        O  0.92759501  0.63310840  0.92478771    -0.60600
H787        H  0.90037666  0.62911028  0.88972844     0.43400
H788        H  0.84313469  0.62114725  0.11075126     0.43300
C789        C  0.10335943  0.88708784  0.99511247    -0.05700
C790        C  0.14180673  0.87148553  0.03800284    -0.33100
C791        C  0.16811231  0.84519510  0.03039325     0.36100
C792        C  0.15604453  0.83329832  0.97904134    -0.06100
C793        C  0.12007668  0.84994164  0.93550352    -0.33000
C794        C  0.09416852  0.87661183  0.94305742     0.36000
H795        H  0.15128978  0.87934051  0.07828154     0.16400
O796        O  0.20395743  0.83056768  0.07417558    -0.60500
H797        H  0.10983280  0.84142027  0.89558616     0.16400
O798        O  0.05878598  0.89152837  0.89931630    -0.60600
H799        H  0.08146114  0.90785404  0.88547870     0.43400
H800        H  0.24016744  0.84039833  0.07508782     0.43300
C801        C  0.74897012  0.74333657  0.69920707    -0.05700
C802        C  0.69693911  0.74880174  0.70185638    -0.33100
C803        C  0.68739192  0.75044949  0.75157099     0.36100
C804        C  0.72997312  0.74566306  0.79989225    -0.06100
C805        C  0.78142399  0.73909804  0.79672114    -0.33000
C806        C  0.79110630  0.73804340  0.74740935     0.36000
H807        H  0.66400937  0.75295877  0.66530822     0.16400
O808        O  0.63645206  0.75698767  0.75222077    -0.60500
H809        H  0.81510790  0.73530779  0.83276885     0.16400
O810        O  0.84239915  0.73206432  0.74697261    -0.60600
H811        H  0.84199127  0.70870593  0.74445467     0.43400
H812        H  0.63501399  0.78049308  0.74699441     0.43300
C813        C  0.76323788  0.74601734  0.30566425    -0.05700
C814        C  0.71842599  0.73670379  0.26270497    -0.33100
C815        C  0.71851690  0.74278830  0.20967445     0.36100
C816        C  0.76442784  0.75784540  0.19838959    -0.06100
C817        C  0.80963995  0.76684384  0.24092789    -0.33000
C818        C  0.80917244  0.76138769  0.29429950     0.36000
H819        H  0.68253433  0.72494969  0.27001674     0.16400
O820        O  0.67440027  0.73249949  0.16917916    -0.60500
H821        H  0.84524940  0.77843098  0.23276244     0.16400
O822        O  0.85319683  0.77177679  0.33479855    -0.60600
H823        H  0.88383143  0.75926790  0.33371686     0.43400
H824        H  0.64818576  0.74955173  0.16216237     0.43300
C825        C  0.25151898  0.73980420  0.69515821    -0.05700
C826        C  0.19798358  0.73863209  0.69766694    -0.33100
C827        C  0.18767797  0.73884221  0.74703148     0.36100
C828        C  0.23128991  0.73920853  0.79490322    -0.06100
C829        C  0.28464906  0.73931557  0.79232766    -0.33000
C830        C  0.29498069  0.73980903  0.74315696     0.36000
H831        H  0.16407683  0.73831882  0.66124428     0.16400
O832        O  0.13492247  0.73779138  0.74810782    -0.60500
H833        H  0.31876190  0.73961348  0.82862840     0.16400
O834        O  0.34787010  0.74034892  0.74256606    -0.60600
H835        H  0.35707650  0.71768666  0.74627958     0.43400
H836        H  0.12389206  0.76014326  0.74069044     0.43300
C837        C  0.25294646  0.73395730  0.30236010    -0.05700
C838        C  0.30237588  0.73914950  0.29055357    -0.33100
C839        C  0.30425772  0.73758347  0.23794701     0.36100
C840        C  0.25606139  0.73173223  0.19610165    -0.06100
C841        C  0.20673049  0.72698671  0.20774291    -0.33000
C842        C  0.20484775  0.72782329  0.26022299     0.36000
H843        H  0.33967462  0.74402848  0.32218857     0.16400
O844        O  0.35297297  0.74317163  0.22742771    -0.60500
H845        H  0.16949947  0.72229364  0.17601293     0.16400
O846        O  0.15550395  0.72292763  0.26967727    -0.60600
H847        H  0.14086811  0.74438101  0.26585567     0.43400
H848        H  0.37048732  0.72244242  0.23553711     0.43300
C849        C  0.45850927  0.74739471  0.50266130    -0.05700
C850        C  0.49758941  0.77027863  0.52929421    -0.33100
C851        C  0.54713381  0.77494212  0.51873834     0.36100
C852        C  0.55738730  0.75703071  0.48040546    -0.06100
C853        C  0.51783272  0.73490062  0.45265544    -0.33000
C854        C  0.46872801  0.72984433  0.46368377     0.36000
H855        H  0.48987198  0.78467057  0.55838517     0.16400
O856        O  0.58496146  0.79716823  0.54549049    -0.60500
H857        H  0.52606165  0.72014462  0.42427758     0.16400
O858        O  0.43235565  0.70660025  0.43815223    -0.60600
H859        H  0.41348637  0.71641069  0.40227928     0.43400
H860        H  0.60140464  0.78713477  0.58180597     0.43300
C861        C  0.96016873  0.74273440  0.50938327    -0.05700
C862        C  0.00164435  0.76317642  0.53948690    -0.33100
C863        C  0.05004793  0.76881411  0.52694295     0.36100
C864        C  0.05672343  0.75459708  0.48297673    -0.06100
C865        C  0.01512824  0.73477667  0.45217704    -0.33000
C866        C  0.96730216  0.72841129  0.46544187     0.36000
H867        H  0.99668793  0.77499188  0.57277661     0.16400
O868        O  0.09045682  0.78834712  0.55747487    -0.60500
H869        H  0.02101766  0.72253271  0.41970358     0.16400
O870        O  0.92925205  0.70685009  0.43706302    -0.60600
H871        H  0.90937071  0.71869748  0.40351026     0.43400
H872        H  0.10719680  0.77546595  0.59100196     0.43300
C873        C  0.49017702  0.00566657  0.69840063    -0.05700
C874        C  0.44254949  0.01479521  0.70673760    -0.33100
C875        C  0.44045703  0.01803431  0.75878283     0.36100
C876        C  0.48643579  0.01168989  0.80317731    -0.06100
C877        C  0.53808392  0.50938389  0.79468170    -0.33000
C878        C  0.54223195  0.50712548  0.74335736     0.36000
H879        H  0.40750378  0.02013634  0.67287981     0.16400
O880        O  0.39340086  0.02730075  0.76568585    -0.60500
H881        H  0.57473014  0.50877760  0.82851075     0.16400
O882        O  0.59236158  0.50365602  0.73739691    -0.60600
H883        H  0.60951283  0.52547720  0.73824739     0.43400
H884        H  0.37093105  0.00733990  0.76661764     0.43300
C885        C  0.49157077  0.00302086  0.30497276    -0.05700
C886        C  0.54400406  0.00005109  0.30139881    -0.33100
C887        C  0.55291857  0.00001556  0.25137716     0.36100
C888        C  0.50917120  0.00383686  0.20391818    -0.06100
C889        C  0.45714385  0.00784142  0.20773429    -0.33000
C890        C  0.44802864  0.00711769  0.25753286     0.36000
H891        H  0.57795554  0.99690559  0.33744059     0.16400
O892        O  0.60472236  0.99708145  0.24941723    -0.60500
H893        H  0.42296440  0.01100892  0.17190320     0.16400
O894        O  0.39654577  0.01134097  0.25937631    -0.60600
H895        H  0.37672920  0.99039910  0.25176134     0.43400
H896        H  0.61048195  0.97390493  0.25459066     0.43300
C897        C  0.34719625  0.84046187  0.50582510    -0.05700
C898        C  0.35314547  0.85174005  0.45596055    -0.33100
C899        C  0.37630044  0.88226675  0.44870384     0.36100
C900        C  0.39544362  0.90234092  0.49210423    -0.06100
C901        C  0.38856089  0.89126128  0.54164852    -0.33000
C902        C  0.36475463  0.86096202  0.54872395     0.36000
H903        H  0.34032657  0.83671409  0.42225545     0.16400
O904        O  0.37989178  0.89206230  0.39877504    -0.60500
H905        H  0.40115167  0.90628689  0.57535920     0.16400
O906        O  0.35877618  0.85184197  0.59801360    -0.60600
H907        H  0.39457874  0.84410526  0.61989242     0.43400
H908        H  0.34445234  0.90123586  0.37943314     0.43300
C909        C  0.60129393  0.59118438  0.51293503    -0.05700
C910        C  0.58541900  0.60633733  0.46130839    -0.33100
C911        C  0.60832072  0.63626795  0.45025002     0.36100
C912        C  0.64857603  0.65199065  0.49109504    -0.06100
C913        C  0.66414759  0.63700304  0.54280343    -0.33000
C914        C  0.64142416  0.60701931  0.55385627     0.36000
H915        H  0.55523011  0.59487684  0.42889424     0.16400
O916        O  0.59038828  0.64995207  0.39921399    -0.60500
H917        H  0.69436751  0.64851928  0.57513749     0.16400
O918        O  0.65893512  0.59360354  0.60511623    -0.60600
H919        H  0.69230523  0.58273280  0.60706065     0.43400
H920        H  0.55853277  0.66194023  0.39850809     0.43300
C921        C  0.97699603  0.98805482  0.79955128    -0.05700
C922        C  0.92996521  0.48733025  0.75618233    -0.33100
C923        C  0.93167287  0.49112188  0.70310909     0.36100
C924        C  0.98165091  0.49841346  0.69271589    -0.06100
C925        C  0.02769102  0.00101026  0.73597130    -0.33000
C926        C  0.02648447  0.99647151  0.78870981     0.36000
H927        H  0.89113174  0.48229924  0.76352833     0.16400
O928        O  0.88414127  0.48884166  0.66189799    -0.60500
H929        H  0.06633919  0.00731995  0.72884211     0.16400
O930        O  0.07399357  0.00090474  0.82934384    -0.60600
H931        H  0.07672827  0.02392420  0.83568439     0.43400
H932        H  0.87757308  0.46579741  0.65580578     0.43300
C933        C  0.01266250  0.50085594  0.19843615    -0.05700
C934        C  0.05814639  0.49805887  0.24439396    -0.33100
C935        C  0.05220631  0.49623851  0.29601976     0.36100
C936        C  0.99994348  0.99554538  0.30312188    -0.06100
C937        C  0.95558378  0.00032883  0.25698070    -0.33000
C938        C  0.96156391  0.00158868  0.20584934     0.36000
H939        H  0.09835806  0.49667542  0.24040609     0.16400
O940        O  0.09723789  0.49278962  0.33976196    -0.60500
H941        H  0.91543516  0.00303489  0.26034064     0.16400
O942        O  0.91614053  0.00544431  0.16261038    -0.60600
H943        H  0.91224290  0.02878241  0.15668461     0.43400
H944        H  0.10123209  0.46948790  0.34620699     0.43300
C945        C  0.69048431  0.98602227  0.51809445    -0.05700
C946        C  0.73320714  0.00517257  0.54900988    -0.33100
C947        C  0.78138999  0.01038624  0.53600539     0.36100
C948        C  0.78789732  0.99559004  0.49210607    -0.06100
C949        C  0.74651799  0.47754628  0.45847347    -0.33000
C950        C  0.69828262  0.47223130  0.47132560     0.36000
H951        H  0.72816795  0.01769887  0.58157926     0.16400
O952        O  0.82135011  0.03029158  0.56617273    -0.60500
H953        H  0.75168272  0.46488387  0.42613793     0.16400
O954        O  0.65795963  0.45234676  0.44162539    -0.60600
H955        H  0.66289832  0.43134757  0.46183914     0.43400
H956        H  0.81432885  0.05175335  0.54795154     0.43300
C957        C  0.29049952  0.99117862  0.50616263    -0.05700
C958        C  0.25456139  0.96568405  0.48420143    -0.33100
C959        C  0.20542112  0.96015973  0.49555195     0.36100
C960        C  0.19242883  0.48319228  0.52533617    -0.06100
C961        C  0.22983509  0.50767497  0.54833656    -0.33000
C962        C  0.27924699  0.51205980  0.53774798     0.36000
H963        H  0.26414311  0.95024017  0.45756742     0.16400
O964        O  0.17044174  0.93550049  0.47325737    -0.60500
H965        H  0.21952909  0.52463436  0.57224165     0.16400
O966        O  0.31336225  0.53757780  0.55768286    -0.60600
H967        H  0.33159061  0.53118473  0.59576879     0.43400
H968        H  0.15270867  0.94303666  0.43563107     0.43300
C969        C  0.85484472  0.83820055  0.51258584    -0.05700
C970        C  0.84746106  0.85031544  0.45947246    -0.33100
C971        C  0.86787876  0.88083410  0.44807641     0.36100
C972        C  0.89681256  0.90017355  0.49013800    -0.06100
C973        C  0.90444105  0.88802731  0.54324694    -0.33000
C974        C  0.88428598  0.85742495  0.55465271     0.36000
H975        H  0.82566402  0.83606024  0.42625778     0.16400
O976        O  0.85841912  0.89157184  0.39550468    -0.60500
H977        H  0.92624421  0.90232886  0.57639834     0.16400
O978        O  0.89440128  0.84652802  0.60721240    -0.60600
H979        H  0.92994228  0.83654206  0.61674793     0.43400
H980        H  0.82256467  0.90124173  0.38522937     0.43300
C981        C  0.09693714  0.58861110  0.50569029    -0.05700
C982        C  0.12221181  0.60778378  0.54892617    -0.33100
C983        C  0.14645108  0.63783450  0.54123495     0.36100
C984        C  0.14654802  0.64961012  0.48942850    -0.06100
C985        C  0.12072950  0.63070737  0.44600024    -0.33000
C986        C  0.09646391  0.60056092  0.45367829     0.36000
H987        H  0.12352884  0.59948587  0.58938688     0.16400
O988        O  0.16909002  0.65564832  0.58484608    -0.60500
H989        H  0.11933398  0.63928110  0.40562649     0.16400
O990        O  0.07219139  0.58320959  0.40981383    -0.60600
H991        H  0.10185588  0.57163204  0.40415452     0.43400
H992        H  0.13944096  0.66862621  0.58709917     0.43300
loop_ 
_geom_bond_atom_site_label_1 
_geom_bond_atom_site_label_2 
_geom_bond_distance 
_geom_bond_site_symmetry_2 
_ccdc_geom_bond_type 
O1           Ni7   1.914       .  S
O1           C22   1.270       .  A
O2          Ni25   1.909       .  S
O2          C507   1.263       .  A
O3           H26   0.966       .  S
O3          Ni19   1.922   1_645  S
O3         Ni503   1.921   1_545  S
O3         Ni521   1.909   1_545  S
C4           O13   1.273       .  A
C4          O517   1.275       .  A
C4          C464   1.452       .  S
O5          Ni24   1.916       .  S
O5           C11   1.266   1_455  A
O6          Ni24   1.906       .  S
O6            C8   1.269       .  A
Ni7          O10   1.916       .  S
Ni7          O12   1.910       .  S
Ni7         O499   1.920       .  S
C8           O18   1.275       .  A
C8          C485   1.499       .  S
O9         Ni521   1.877   1_545  S
O9          C511   1.260   1_545  A
O10          C15   1.269       .  A
C11         O498   1.261   1_545  A
C11         C428   1.475   1_545  S
O12          C14   1.271       .  A
O13         Ni24   1.899   1_565  S
C14          O20   1.277       .  A
C14         C476   1.495       .  S
C15         O505   1.261       .  A
C15         C452   1.461       .  S
H16          O17   0.967       .  S
O17         Ni25   1.889   1_455  S
O17        Ni515   1.905       .  S
O17        Ni520   1.914       .  S
O18         Ni19   1.940   1_545  S
Ni19         O23   1.917       .  S
Ni19        O517   1.902       .  S
Ni19        O513   1.900       .  S
O20         Ni25   1.947       .  S
O21        Ni515   1.893       .  S
O21         C500   1.272       .  A
C22         O519   1.268   1_655  A
C22         C440   1.481   1_655  S
O23         C518   1.271   1_455  A
Ni24        O513   1.909   1_545  S
Ni25        O505   1.876       .  S
Ni25        O499   1.911       .  S
O27         Ni33   1.926       .  S
O27          C48   1.272       .  A
O28         Ni51   1.913       .  S
O28          C37   1.269       .  A
O29          H52   0.966       .  S
O29        Ni529   1.913   1_545  S
O29        Ni547   1.908   1_545  S
O29        Ni541   1.914   1_545  S
C30          O47   1.271       .  A
C30          O39   1.274       .  A
C30         C449   1.446       .  S
O31         Ni50   1.914       .  S
O31         C533   1.266       .  A
O32         Ni50   1.907       .  S
O32          C34   1.268       .  A
Ni33         O36   1.918       .  S
Ni33         O38   1.909       .  S
Ni33        O525   1.908       .  S
C34          O44   1.275       .  A
C34         C413   1.494       .  S
O35         Ni51   1.879       .  S
O35          C41   1.266       .  A
O36          C41   1.272       .  A
C37         O527   1.267       .  A
C37         C377   1.472       .  S
O38          C40   1.271       .  A
O39        Ni546   1.901       .  S
C40          O46   1.281       .  A
C40         C404   1.503       .  S
C41         C461   1.455       .  S
H42          O43   0.966       .  S
O43         Ni51   1.892       .  S
O43         Ni45   1.896       .  S
O43        Ni546   1.903       .  S
O44        Ni541   1.935   1_545  S
Ni45         O47   1.892       .  S
Ni45        O540   1.939       .  S
Ni45        O545   1.903       .  S
Ni45        O525   1.902       .  S
O46         Ni51   1.962       .  S
C48         O545   1.268       .  A
C48         C389   1.478       .  S
O49        Ni541   1.902   1_545  S
O49         C544   1.268       .  A
Ni50        O535   1.905   1_545  S
Ni50        O539   1.908   1_545  S
Ni51        O525   1.908       .  S
O53         Ni59   1.909       .  S
O53          C74   1.266       .  A
O54         Ni77   1.897       .  S
O54          C63   1.263       .  A
O55          H78   0.966       .  S
O55         Ni59   1.924       .  S
O55         Ni77   1.907       .  S
O55         Ni71   1.900       .  S
C56          O73   1.265       .  A
C56          O65   1.268       .  A
C56         C353   1.458       .  S
O57         Ni76   1.914       .  S
O57          C63   1.266       .  A
O58         Ni76   1.908       .  S
O58          C60   1.270       .  A
Ni59         O62   1.906       .  S
Ni59         O64   1.906       .  S
C60          O70   1.281       .  A
C60         C401   1.504       .  S
O61         Ni77   1.880       .  S
O61          C67   1.264       .  A
O62          C67   1.269       .  A
C63         C329   1.471       .  S
O64          C66   1.269       .  A
O65         Ni76   1.900       .  S
C66          O72   1.276       .  A
C66         C488   1.499       .  S
C67         C368   1.452       .  S
H68          O69   0.966       .  S
O69         Ni77   1.900       .  S
O69         Ni71   1.914       .  S
O69         Ni76   1.923       .  S
O70         Ni71   1.959       .  S
Ni71         O75   1.905       .  S
Ni71         O73   1.884       .  S
O72         Ni77   1.948       .  S
C74          O75   1.266       .  A
C74         C341   1.461       .  S
O79         Ni85   1.917       .  S
O79         C100   1.266       .  A
O80        Ni103   1.916       .  S
O80          C89   1.269       .  A
O81         H104   0.966       .  S
O81         Ni85   1.915       .  S
O81        Ni103   1.906       .  S
O81         Ni97   1.893       .  S
C82          O99   1.265       .  A
C82          O91   1.272       .  A
C82         C365   1.455       .  S
O83        Ni102   1.925       .  S
O83          C89   1.271       .  A
O84        Ni102   1.913       .  S
O84          C86   1.271       .  A
Ni85         O88   1.902       .  S
Ni85         O90   1.910       .  S
C86          O96   1.275       .  A
C86         C473   1.496       .  S
O87        Ni103   1.881       .  S
O87          C93   1.270       .  A
O88          C93   1.273       .  A
C89         C305   1.485       .  S
O90          C92   1.269       .  A
O91        Ni102   1.917       .  S
C92          O98   1.274       .  A
C92         C416   1.496       .  S
C93         C356   1.450       .  S
H94          O95   0.966       .  S
O95        Ni103   1.902       .  S
O95         Ni97   1.913       .  S
O95        Ni102   1.918       .  S
O96         Ni97   1.941       .  S
Ni97        O101   1.916       .  S
Ni97         O99   1.875       .  S
O98        Ni103   1.933       .  S
C100        O101   1.265       .  A
C100        C317   1.485       .  S
O105       Ni111   1.923   1_565  S
O105        C622   1.272       .  A
O106       Ni129   1.893       .  S
O106        C115   1.269   1_645  A
O107        H130   0.966   1_655  S
O107       Ni111   1.907       .  S
O107       Ni129   1.888   1_556  S
O107       Ni619   1.922   1_645  S
C108        O125   1.279   1_554  A
C108        O117   1.280       .  A
C108        C293   1.500   1_554  S
O109       Ni128   1.943       .  S
O109        C611   1.277       .  A
O110       Ni128   1.924       .  S
O110        C112   1.273       .  A
Ni111       O114   1.913       .  S
Ni111       O116   1.929       .  S
C112        O122   1.277   1_554  A
C112        C269   1.507       .  S
O113       Ni129   1.932       .  S
O113        C119   1.283   1_554  A
O114        C119   1.277       .  A
C115        O605   1.278       .  A
C115        C437   1.490       .  S
O116        C614   1.273       .  A
O117       Ni128   1.936       .  S
C118        O612   1.273       .  A
C118        O620   1.281   1_556  A
C118        C260   1.515       .  S
C119        C281   1.487       .  S
H120        O121   0.966   1_655  S
O121       Ni123   1.898   1_554  S
O121       Ni128   1.920       .  S
O121       Ni625   1.926   1_455  S
O122       Ni123   1.940       .  S
Ni123       O127   1.897       .  S
Ni123       O125   1.924       .  S
Ni123       O603   1.924   1_455  S
O124       Ni129   1.951   1_565  S
O124        C614   1.282   1_564  A
C126        O127   1.267   1_655  A
C126        O601   1.273       .  A
C126        C425   1.479       .  S
Ni129       O617   1.927   1_645  S
O131       Ni137   1.942       .  S
O131        C152   1.277       .  A
O132       Ni155   1.894       .  S
O132        C637   1.268       .  A
O133        H156   0.966       .  S
O133       Ni633   1.920   1_545  S
O133       Ni651   1.909   1_554  S
O133       Ni645   1.943       .  S
C134        O151   1.284   1_556  A
C134        O143   1.277       .  A
C134        C272   1.510   1_556  S
O135       Ni154   1.928       .  S
O135        C141   1.273       .  A
O136       Ni154   1.916       .  S
O136        C138   1.272       .  A
Ni137       O140   1.940       .  S
Ni137       O142   1.918       .  S
Ni137       O629   1.916       .  S
C138        O148   1.274   1_556  A
C138        C233   1.493       .  S
O139       Ni155   1.950       .  S
O139        C145   1.283   1_556  A
O140        C145   1.278       .  A
C141        O628   1.267   1_545  A
C141        C876   1.476       .  S
O142        C144   1.274       .  A
O143       Ni650   1.924       .  S
C144        O150   1.273   1_554  A
C144        C248   1.498       .  S
C145        C257   1.517   1_554  S
H146        O147   0.966       .  S
O147       Ni155   1.931       .  S
O147       Ni149   1.896   1_556  S
O147       Ni650   1.911       .  S
O148       Ni645   1.928       .  S
Ni149       O151   1.955       .  S
Ni149       O644   1.928       .  S
Ni149       O649   1.894       .  S
Ni149       O629   1.937       .  S
O150       Ni155   1.929       .  S
C152        O649   1.268       .  A
C152        C392   1.479       .  S
O153       Ni645   1.891       .  S
O153        C648   1.267       .  A
Ni154       O639   1.924       .  S
Ni154       O643   1.910   1_545  S
Ni155       O629   1.904   1_556  S
O157       Ni163   1.926       .  S
O157        C178   1.272       .  A
O158       Ni181   1.882       .  S
O158        C167   1.265       .  A
O159        H182   0.966       .  S
O159       Ni163   1.912       .  S
O159       Ni181   1.888   1_554  S
O159       Ni175   1.927       .  S
C160        O177   1.280   1_556  A
C160        O169   1.277       .  A
C160        C221   1.516   1_556  S
O161       Ni180   1.939       .  S
O161        C167   1.276       .  A
O162       Ni180   1.916       .  S
O162        C164   1.273       .  A
Ni163       O166   1.923       .  S
Ni163       O168   1.917       .  S
C164        O174   1.274   1_556  A
C164        C296   1.498       .  S
O165       Ni181   1.955       .  S
O165        C171   1.285   1_556  A
O166        C171   1.277       .  A
C167        C332   1.472       .  S
O168        C170   1.271       .  A
O169       Ni180   1.941       .  S
C170        O176   1.274   1_554  A
C170        C236   1.492       .  S
C171        C209   1.512   1_554  S
H172        O173   0.966       .  S
O173       Ni181   1.940       .  S
O173       Ni175   1.903   1_556  S
O173       Ni180   1.921       .  S
O174       Ni175   1.932       .  S
Ni175       O179   1.891       .  S
Ni175       O177   1.943       .  S
O176       Ni181   1.927       .  S
C178        O179   1.266       .  A
C178        C344   1.476       .  S
O183       Ni189   1.947       .  S
O183        C204   1.277       .  A
O184       Ni207   1.905       .  S
O184        C193   1.268       .  A
O185        H208   0.966       .  S
O185       Ni189   1.917       .  S
O185       Ni207   1.904   1_556  S
O185       Ni201   1.927       .  S
C186        O203   1.283   1_554  A
C186        O195   1.277       .  A
C186        C284   1.485       .  S
O187       Ni206   1.924       .  S
O187        C193   1.272       .  A
O188       Ni206   1.926       .  S
O188        C190   1.274       .  A
Ni189       O192   1.938       .  S
Ni189       O194   1.920       .  S
C190        O200   1.279   1_554  A
C190        C224   1.516       .  S
O191       Ni207   1.921       .  S
O191        C197   1.278   1_554  A
O192        C197   1.280       .  A
C193        C320   1.481       .  S
O194        C196   1.272       .  A
O195       Ni206   1.915       .  S
C196        O202   1.279   1_556  A
C196        C212   1.510       .  S
C197        C245   1.500   1_556  S
H198        O199   0.966       .  S
O199       Ni207   1.923       .  S
O199       Ni201   1.891   1_554  S
O199       Ni206   1.911       .  S
O200       Ni201   1.947       .  S
Ni201       O205   1.902       .  S
Ni201       O203   1.931       .  S
O202       Ni207   1.945       .  S
C204        O205   1.271       .  A
C204        C308   1.494       .  S
C209        C210   1.409       .  A
C209        C214   1.420   1_556  A
C210        C211   1.414       .  A
C210        H215   1.083       .  S
C211        C212   1.419       .  A
C211        O216   1.371       .  S
C212        C213   1.406   1_556  A
C213        C214   1.405       .  A
C213        H217   1.083       .  S
C214        O218   1.372       .  S
O216        H220   0.992       .  S
O218        H219   0.992       .  S
C221        C222   1.413   1_454  A
C221        C226   1.415       .  A
C222        C223   1.409       .  A
C222        H227   1.083       .  S
C223        C224   1.415   1_556  A
C223        O228   1.371       .  S
C224        C225   1.415       .  A
C225        C226   1.415   1_655  A
C225        H229   1.083       .  S
C226        O230   1.371       .  S
O228        H232   0.992       .  S
O230        H231   0.991       .  S
C233        C234   1.410   1_556  A
C233        C238   1.411       .  A
C234        C235   1.405       .  A
C234        H239   1.084       .  S
C235        C236   1.410       .  A
C235        O240   1.371       .  S
C236        C237   1.409   1_554  A
C237        C238   1.404       .  A
C237        H241   1.084       .  S
C238        O242   1.371       .  S
O240        H244   0.992       .  S
O242        H243   0.992       .  S
C245        C246   1.408   1_554  A
C245        C250   1.415       .  A
C246        C247   1.402       .  A
C246        H251   1.083       .  S
C247        C248   1.415   1_556  A
C247        O252   1.372       .  S
C248        C249   1.409       .  A
C249        C250   1.406       .  A
C249        H253   1.083       .  S
C250        O254   1.371       .  S
O252        H256   0.992       .  S
O254        H255   0.992       .  S
C257        C262   1.419   1_556  A
C257        C754   1.411       .  A
C258        C259   1.419       .  A
C258        C753   1.411       .  A
C258        H263   1.083       .  S
C259        C756   1.421       .  A
C259        O264   1.371       .  S
C260        C261   1.407   1_556  A
C260        C755   1.419       .  A
C261        C262   1.409       .  A
C261        H265   1.081       .  S
C262        O266   1.371       .  S
O264        H268   0.992   1_545  S
O266        H267   0.992       .  S
C269        C274   1.416       .  A
C269        C766   1.407   1_554  A
C270        C271   1.404       .  A
C270        C765   1.407   1_556  A
C270        H275   1.083       .  S
C271        C768   1.420   1_556  A
C271        O276   1.372       .  S
C272        C273   1.413       .  A
C272        C767   1.416   1_554  A
C273        C274   1.417       .  A
C273        H277   1.083       .  S
C274        O278   1.371       .  S
O276        H280   0.992   1_565  S
O278        H279   0.992       .  S
C281        C282   1.406   1_556  A
C281        C286   1.414       .  A
C282        C283   1.401       .  A
C282        H287   1.084       .  S
C283        C284   1.413       .  A
C283        O288   1.372       .  S
C284        C285   1.405   1_554  A
C285        C286   1.400       .  A
C285        H289   1.084       .  S
C286        O290   1.372       .  S
O288        H292   0.992       .  S
O290        H291   0.992       .  S
C293        C294   1.409   1_556  A
C293        C298   1.414       .  A
C294        C295   1.401       .  A
C294        H299   1.083       .  S
C295        C296   1.414   1_554  A
C295        O300   1.372       .  S
C296        C297   1.409       .  A
C297        C298   1.407       .  A
C297        H301   1.083       .  S
C298        O302   1.371       .  S
O300        H304   0.992       .  S
O302        H303   0.992       .  S
C305        C306   1.404       .  A
C305        C310   1.410       .  A
C306        C307   1.409       .  A
C306        H311   1.083       .  S
C307        C308   1.417       .  A
C307        O312   1.371       .  S
C308        C309   1.406       .  A
C309        C310   1.397       .  A
C309        H313   1.083       .  S
C310        O314   1.372       .  S
O312        H316   0.992       .  S
O314        H315   0.992       .  S
C317        C318   1.405       .  A
C317        C322   1.412       .  A
C318        C319   1.396       .  A
C318        H323   1.084       .  S
C319        C320   1.410       .  A
C319        O324   1.372       .  S
C320        C321   1.406       .  A
C321        C322   1.405       .  A
C321        H325   1.083       .  S
C322        O326   1.371       .  S
O324        H328   0.992       .  S
O326        H327   0.992       .  S
C329        C330   1.403       .  A
C329        C334   1.410       .  A
C330        C331   1.399       .  A
C330        H335   1.083       .  S
C331        C332   1.409       .  A
C331        O336   1.372       .  S
C332        C333   1.403       .  A
C333        C334   1.393       .  A
C333        H337   1.084       .  S
C334        O338   1.372       .  S
O336        H340   0.992       .  S
O338        H339   0.992       .  S
C341        C342   1.398       .  A
C341        C346   1.404       .  A
C342        C343   1.400       .  A
C342        H347   1.080       .  S
C343        C344   1.413       .  A
C343        O348   1.372       .  S
C344        C345   1.405       .  A
C345        C346   1.391       .  A
C345        H349   1.083       .  S
C346        O350   1.372       .  S
O348        H352   0.992       .  S
O350        H351   0.992       .  S
C353        C354   1.406       .  A
C353        C358   1.404       .  A
C354        C355   1.386       .  A
C354        H359   1.084       .  S
C355        C356   1.402       .  A
C355        O360   1.373       .  S
C356        C357   1.403       .  A
C357        C358   1.389       .  A
C357        H361   1.084       .  S
C358        O362   1.372       .  S
O360        H364   0.992       .  S
O362        H363   0.991       .  S
C365        C366   1.404       .  A
C365        C370   1.405       .  A
C366        C367   1.389   1_655  A
C366        H371   1.084       .  S
C367        C368   1.403       .  A
C367        O372   1.372       .  S
C368        C369   1.402       .  A
C369        C370   1.386   1_455  A
C369        H373   1.084       .  S
C370        O374   1.373       .  S
O372        H376   0.992       .  S
O374        H375   0.992       .  S
C377        C378   1.402       .  A
C377        C878   1.409       .  A
C378        C379   1.402       .  A
C378        H383   1.083       .  S
C379        C380   1.411       .  A
C379        O384   1.372       .  S
C380        C637   1.475       .  S
C380        C877   1.402       .  A
C381        C382   1.393   1_545  A
C381        C876   1.404       .  A
C381        H385   1.084   1_545  S
C382        C873   1.404   1_565  A
C382        O386   1.372       .  S
O384        H388   0.992       .  S
O386        H387   0.992   1_565  S
C389        C390   1.404       .  A
C389        C394   1.411       .  A
C390        C391   1.402       .  A
C390        H395   1.084       .  S
C391        C392   1.410       .  A
C391        O396   1.372       .  S
C392        C393   1.403       .  A
C393        C394   1.398       .  A
C393        H397   1.084       .  S
C394        O398   1.372       .  S
O396        H400   0.992       .  S
O398        H399   0.992       .  S
C401        C402   1.407       .  A
C401        C406   1.418       .  A
C402        C403   1.407       .  A
C402        H407   1.083       .  S
C403        C404   1.417       .  A
C403        O408   1.372       .  S
C404        C405   1.407       .  A
C405        C406   1.407       .  A
C405        H409   1.083       .  S
C406        O410   1.372       .  S
O408        H412   0.992       .  S
O410        H411   0.992       .  S
C413        C414   1.406       .  A
C413        C418   1.414       .  A
C414        C415   1.403       .  A
C414        H419   1.083       .  S
C415        C416   1.415       .  A
C415        O420   1.372       .  S
C416        C417   1.407       .  A
C417        C418   1.403       .  A
C417        H421   1.083       .  S
C418        O422   1.372       .  S
O420        H424   0.992       .  S
O422        H423   0.992       .  S
C425        C430   1.411   1_655  A
C425        C922   1.406       .  A
C426        C427   1.403       .  A
C426        C921   1.405       .  A
C426        H431   1.083       .  S
C427        C428   1.411       .  A
C427        O432   1.372       .  S
C428        C925   1.402   1_665  A
C429        C430   1.394       .  A
C429        C924   1.403   1_455  A
C429        H433   1.084       .  S
C430        O434   1.373       .  S
O432        H436   0.992       .  S
O434        H435   0.992       .  S
C437        C438   1.410       .  A
C437        C938   1.413   1_465  A
C438        C439   1.407       .  A
C438        H443   1.083       .  S
C439        C936   1.409   1_455  A
C439        O444   1.371       .  S
C440        C441   1.403   1_455  A
C440        C935   1.409       .  A
C441        C442   1.392       .  A
C441        H445   1.084       .  S
C442        C933   1.412   1_655  A
C442        O446   1.371       .  S
O444        H448   0.991       .  S
O446        H447   0.992       .  S
C449        C450   1.399       .  A
C449        C950   1.401       .  A
C450        C451   1.387       .  A
C450        H455   1.085       .  S
C451        C452   1.409       .  A
C451        O456   1.372       .  S
C452        C949   1.407       .  A
C453        C454   1.391       .  A
C453        C948   1.406       .  A
C453        H457   1.083       .  S
C454        C945   1.403       .  A
C454        O458   1.372       .  S
O456        H460   0.992       .  S
O458        H459   0.992       .  S
C461        C462   1.406       .  A
C461        C962   1.404       .  A
C462        C463   1.390       .  A
C462        H467   1.084       .  S
C463        C960   1.400       .  A
C463        O468   1.372       .  S
C464        C465   1.403   1_565  A
C464        C959   1.400       .  A
C465        C466   1.389       .  A
C465        H469   1.084       .  S
C466        C957   1.405   1_545  A
C466        O470   1.373       .  S
O468        H472   0.991       .  S
O470        H471   0.991       .  S
C473        C474   1.408       .  A
C473        C478   1.413       .  A
C474        C475   1.403       .  A
C474        H479   1.083       .  S
C475        C476   1.414       .  A
C475        O480   1.372       .  S
C476        C477   1.408       .  A
C477        C478   1.403       .  A
C477        H481   1.083       .  S
C478        O482   1.371       .  S
O480        H484   0.992       .  S
O482        H483   0.992       .  S
C485        C486   1.410       .  A
C485        C490   1.413       .  A
C486        C487   1.403       .  A
C486        H491   1.083       .  S
C487        C488   1.413       .  A
C487        O492   1.372       .  S
C488        C489   1.411       .  A
C489        C490   1.406       .  A
C489        H493   1.083       .  S
C490        O494   1.372       .  S
O492        H496   0.992       .  S
O494        H495   0.992       .  S
O497       Ni503   1.915       .  S
O497        C518   1.271       .  A
O498       Ni521   1.904       .  S
O499        H522   0.966       .  S
O499       Ni515   1.913   1_655  S
C500        O509   1.271       .  A
C500        C960   1.448       .  S
O501       Ni520   1.916       .  S
O501        C507   1.266   1_455  A
O502       Ni520   1.906       .  S
O502        C504   1.269       .  A
Ni503       O506   1.927       .  S
Ni503       O508   1.909       .  S
C504        O514   1.274       .  A
C504        C981   1.498       .  S
O506        C511   1.270       .  A
C507        C924   1.478       .  S
O508        C510   1.272       .  A
O509       Ni520   1.899       .  S
C510        O516   1.277       .  A
C510        C972   1.491       .  S
C511        C948   1.468       .  S
H512        O513   0.967       .  S
O513       Ni521   1.888   1_455  S
O514       Ni515   1.938       .  S
Ni515       O519   1.910       .  S
O516       Ni521   1.947       .  S
C518        C936   1.485       .  S
O523       Ni529   1.918       .  S
O523        C544   1.270   1_565  A
O524       Ni547   1.908       .  S
O524        C533   1.266   1_565  A
O525        H548   0.966       .  S
C526        O543   1.272       .  A
C526        O535   1.274       .  A
C526        C945   1.456       .  S
O527       Ni546   1.915       .  S
O528       Ni546   1.908       .  S
O528        C530   1.268       .  A
Ni529       O532   1.921       .  S
Ni529       O534   1.904       .  S
C530        O540   1.276       .  A
C530        C909   1.499       .  S
O531       Ni547   1.882   1_545  S
O531        C537   1.264   1_545  A
O532        C537   1.271       .  A
C533        C873   1.464       .  S
O534        C536   1.270       .  A
C536        O542   1.282       .  A
C536        C900   1.498       .  S
C537        C957   1.461       .  S
H538        O539   0.966       .  S
O539       Ni547   1.893       .  S
O539       Ni541   1.895       .  S
Ni541       O543   1.897       .  S
O542       Ni547   1.961       .  S
C544        C885   1.476       .  S
O549       Ni555   1.913       .  S
O549        C570   1.267       .  A
O550       Ni573   1.899       .  S
O550        C559   1.266       .  A
O551        H574   0.966       .  S
O551       Ni555   1.901       .  S
O551       Ni573   1.891       .  S
O551       Ni567   1.892       .  S
C552        O569   1.267       .  A
C552        O561   1.273       .  A
C552        C849   1.459       .  S
O553       Ni572   1.923       .  S
O553        C559   1.271       .  A
O554       Ni572   1.904       .  S
O554        C556   1.269       .  A
Ni555       O558   1.904       .  S
Ni555       O560   1.912       .  S
C556        O566   1.281       .  A
C556        C897   1.498       .  S
O557       Ni573   1.890       .  S
O557        C563   1.271       .  A
O558        C563   1.275       .  A
C559        C825   1.475       .  S
O560        C562   1.268       .  A
O561       Ni572   1.917       .  S
C562        O568   1.274       .  A
C562        C984   1.494       .  S
C563        C864   1.448       .  S
H564        O565   0.966       .  S
O565       Ni573   1.902       .  S
O565       Ni567   1.911       .  S
O565       Ni572   1.906       .  S
O566       Ni567   1.960       .  S
Ni567       O571   1.921       .  S
Ni567       O569   1.878       .  S
O568       Ni573   1.934       .  S
C570        O571   1.271       .  A
C570        C837   1.481       .  S
O575       Ni581   1.920       .  S
O575        C596   1.267       .  A
O576       Ni599   1.914       .  S
O576        C585   1.269       .  A
O577        H600   0.966       .  S
O577       Ni581   1.913       .  S
O577       Ni599   1.904       .  S
O577       Ni593   1.888       .  S
C578        O595   1.262       .  A
C578        O587   1.270       .  A
C578        C861   1.463       .  S
O579       Ni598   1.922       .  S
O579        C585   1.271       .  A
O580       Ni598   1.911       .  S
O580        C582   1.272       .  A
Ni581       O584   1.900       .  S
Ni581       O586   1.908       .  S
C582        O592   1.275       .  A
C582        C969   1.492       .  S
O583       Ni599   1.889       .  S
O583        C589   1.271       .  A
O584        C589   1.272       .  A
C585        C801   1.485       .  S
O586        C588   1.269       .  A
O587       Ni598   1.918       .  S
C588        O594   1.276       .  A
C588        C912   1.496       .  S
C589        C852   1.450       .  S
H590        O591   0.966       .  S
O591       Ni599   1.912       .  S
O591       Ni593   1.916       .  S
O591       Ni598   1.923       .  S
O592       Ni593   1.941       .  S
Ni593       O597   1.912       .  S
Ni593       O595   1.877       .  S
O594       Ni599   1.940       .  S
C596        O597   1.264       .  A
C596        C813   1.487       .  S
O601       Ni607   1.925       .  S
O602       Ni625   1.890       .  S
O602        C611   1.268   1_655  A
O603        H626   0.966   1_655  S
O603       Ni607   1.910       .  S
O603       Ni625   1.888   1_556  S
C604        O621   1.277   1_554  A
C604        O613   1.279       .  A
C604        C789   1.498   1_554  S
O605       Ni624   1.946       .  S
O606       Ni624   1.924       .  S
O606        C608   1.273       .  A
Ni607       O610   1.917       .  S
Ni607       O612   1.930       .  S
C608        O618   1.278   1_554  A
C608        C765   1.511       .  S
O609       Ni625   1.929       .  S
O609        C615   1.281   1_554  A
O610        C615   1.277       .  A
C611        C933   1.486       .  S
O613       Ni624   1.935       .  S
C614        C756   1.518       .  S
C615        C777   1.480       .  S
H616        O617   0.966   1_655  S
O617       Ni619   1.901   1_554  S
O617       Ni624   1.919       .  S
O618       Ni619   1.945       .  S
Ni619       O623   1.896       .  S
Ni619       O621   1.922       .  S
O620       Ni625   1.950       .  S
C622        O623   1.267   1_655  A
C622        C921   1.476       .  S
O627       Ni633   1.935       .  S
O627        C648   1.274   1_565  A
O628       Ni651   1.892   1_565  S
O629        H652   0.966       .  S
C630        O647   1.286   1_556  A
C630        O639   1.277   1_565  A
C630        C768   1.513   1_556  S
O631       Ni650   1.931       .  S
O631        C637   1.274       .  A
O632       Ni650   1.916       .  S
O632        C634   1.272       .  A
Ni633       O636   1.937   1_565  S
Ni633       O638   1.909       .  S
C634        O644   1.275   1_556  A
C634        C729   1.496       .  S
O635       Ni651   1.955       .  S
O635        C641   1.283   1_556  A
O636        C641   1.276       .  A
O638        C640   1.272       .  A
C640        O646   1.273   1_554  A
C640        C744   1.488       .  S
C641        C753   1.522   1_554  S
H642        O643   0.966       .  S
O643       Ni651   1.930   1_565  S
O643       Ni645   1.892   1_566  S
Ni645       O647   1.957   1_545  S
O646       Ni651   1.928   1_565  S
C648        C888   1.478       .  S
O653       Ni659   1.927       .  S
O653        C674   1.273       .  A
O654       Ni677   1.887       .  S
O654        C663   1.266       .  A
O655        H678   0.966       .  S
O655       Ni659   1.907       .  S
O655       Ni677   1.892   1_554  S
O655       Ni671   1.932       .  S
C656        O673   1.283   1_556  A
C656        O665   1.276       .  A
C656        C717   1.518   1_556  S
O657       Ni676   1.939       .  S
O657        C663   1.276       .  A
O658       Ni676   1.914       .  S
O658        C660   1.274       .  A
Ni659       O662   1.925       .  S
Ni659       O664   1.916       .  S
C660        O670   1.275   1_556  A
C660        C792   1.492       .  S
O661       Ni677   1.960       .  S
O661        C667   1.285   1_556  A
O662        C667   1.278       .  A
C663        C828   1.476       .  S
O664        C666   1.272       .  A
O665       Ni676   1.940       .  S
C666        O672   1.275   1_554  A
C666        C732   1.496       .  S
C667        C705   1.515   1_554  S
H668        O669   0.966       .  S
O669       Ni677   1.942       .  S
O669       Ni671   1.909   1_556  S
O669       Ni676   1.921       .  S
O670       Ni671   1.932       .  S
Ni671       O675   1.906       .  S
Ni671       O673   1.949       .  S
O672       Ni677   1.929       .  S
C674        O675   1.270       .  A
C674        C840   1.474       .  S
O679       Ni685   1.952       .  S
O679        C700   1.280       .  A
O680       Ni703   1.905       .  S
O680        C689   1.268       .  A
O681        H704   0.966       .  S
O681       Ni685   1.915       .  S
O681       Ni703   1.899   1_556  S
O681       Ni697   1.922       .  S
C682        O699   1.283   1_554  A
C682        O691   1.277       .  A
C682        C780   1.480       .  S
O683       Ni702   1.922       .  S
O683        C689   1.271       .  A
O684       Ni702   1.926       .  S
O684        C686   1.273       .  A
Ni685       O688   1.939       .  S
Ni685       O690   1.929       .  S
C686        O696   1.279   1_554  A
C686        C720   1.516       .  S
O687       Ni703   1.912       .  S
O687        C693   1.277   1_554  A
O688        C693   1.281       .  A
C689        C816   1.475       .  S
O690        C692   1.275       .  A
O691       Ni702   1.913       .  S
C692        O698   1.279   1_556  A
C692        C708   1.513       .  S
C693        C741   1.493   1_556  S
H694        O695   0.967       .  S
O695       Ni703   1.920       .  S
O695       Ni697   1.890   1_554  S
O695       Ni702   1.909       .  S
O696       Ni697   1.947       .  S
Ni697       O701   1.894       .  S
Ni697       O699   1.932       .  S
O698       Ni703   1.946       .  S
C700        O701   1.270       .  A
C700        C804   1.494       .  S
C705        C706   1.413       .  A
C705        C710   1.417   1_556  A
C706        C707   1.419       .  A
C706        H711   1.083       .  S
C707        C708   1.417       .  A
C707        O712   1.371       .  S
C708        C709   1.408   1_556  A
C709        C710   1.405       .  A
C709        H713   1.083       .  S
C710        O714   1.372       .  S
O712        H716   0.992       .  S
O714        H715   0.992       .  S
C717        C718   1.415   1_454  A
C717        C722   1.413       .  A
C718        C719   1.411       .  A
C718        H723   1.083       .  S
C719        C720   1.414   1_556  A
C719        O724   1.371       .  S
C720        C721   1.415       .  A
C721        C722   1.415   1_655  A
C721        H725   1.083       .  S
C722        O726   1.370       .  S
O724        H728   0.992       .  S
O726        H727   0.991       .  S
C729        C730   1.408   1_556  A
C729        C734   1.414       .  A
C730        C731   1.403       .  A
C730        H735   1.083       .  S
C731        C732   1.414       .  A
C731        O736   1.371       .  S
C732        C733   1.409   1_554  A
C733        C734   1.405       .  A
C733        H737   1.083       .  S
C734        O738   1.372       .  S
O736        H740   0.992       .  S
O738        H739   0.992       .  S
C741        C742   1.409   1_554  A
C741        C746   1.413       .  A
C742        C743   1.401       .  A
C742        H747   1.083       .  S
C743        C744   1.411   1_556  A
C743        O748   1.372       .  S
C744        C745   1.407       .  A
C745        C746   1.401       .  A
C745        H749   1.083       .  S
C746        O750   1.372       .  S
O748        H752   0.992       .  S
O750        H751   0.992       .  S
C753        C758   1.422   1_556  A
C754        C755   1.419       .  A
C754        H759   1.083       .  S
C755        O760   1.371       .  S
C756        C757   1.407   1_546  A
C757        C758   1.410   1_565  A
C757        H761   1.082       .  S
C758        O762   1.371       .  S
O760        H764   0.992       .  S
O762        H763   0.992       .  S
C765        C770   1.419       .  A
C766        C767   1.403       .  A
C766        H771   1.084       .  S
C767        O772   1.372       .  S
C768        C769   1.410       .  A
C769        C770   1.415       .  A
C769        H773   1.083       .  S
C770        O774   1.371       .  S
O772        H776   0.992       .  S
O774        H775   0.992   1_565  S
C777        C778   1.406   1_556  A
C777        C782   1.409       .  A
C778        C779   1.400       .  A
C778        H783   1.084       .  S
C779        C780   1.410       .  A
C779        O784   1.372       .  S
C780        C781   1.406   1_554  A
C781        C782   1.400       .  A
C781        H785   1.084       .  S
C782        O786   1.372       .  S
O784        H788   0.992       .  S
O786        H787   0.992       .  S
C789        C790   1.409   1_556  A
C789        C794   1.414       .  A
C790        C791   1.399       .  A
C790        H795   1.083       .  S
C791        C792   1.412   1_554  A
C791        O796   1.372       .  S
C792        C793   1.408       .  A
C793        C794   1.406       .  A
C793        H797   1.083       .  S
C794        O798   1.371       .  S
O796        H800   0.992       .  S
O798        H799   0.992       .  S
C801        C802   1.405       .  A
C801        C806   1.410       .  A
C802        C803   1.408       .  A
C802        H807   1.083       .  S
C803        C804   1.415       .  A
C803        O808   1.371       .  S
C804        C805   1.407       .  A
C805        C806   1.396       .  A
C805        H809   1.084       .  S
C806        O810   1.372       .  S
O808        H812   0.992       .  S
O810        H811   0.992       .  S
C813        C814   1.407       .  A
C813        C818   1.414       .  A
C814        C815   1.396       .  A
C814        H819   1.083       .  S
C815        C816   1.407       .  A
C815        O820   1.373       .  S
C816        C817   1.402       .  A
C817        C818   1.405       .  A
C817        H821   1.084       .  S
C818        O822   1.373       .  S
O820        H824   0.992       .  S
O822        H823   0.992       .  S
C825        C826   1.404       .  A
C825        C830   1.410       .  A
C826        C827   1.401       .  A
C826        H831   1.083       .  S
C827        C828   1.410       .  A
C827        O832   1.372       .  S
C828        C829   1.403       .  A
C829        C830   1.394       .  A
C829        H833   1.084       .  S
C830        O834   1.372       .  S
O832        H836   0.992       .  S
O834        H835   0.992       .  S
C837        C838   1.404       .  A
C837        C842   1.414       .  A
C838        C839   1.403       .  A
C838        H843   1.083       .  S
C839        C840   1.409       .  A
C839        O844   1.371       .  S
C840        C841   1.398       .  A
C841        C842   1.396       .  A
C841        H845   1.082       .  S
C842        O846   1.372       .  S
O844        H848   0.992       .  S
O846        H847   0.992       .  S
C849        C850   1.407       .  A
C849        C854   1.406       .  A
C850        C851   1.390       .  A
C850        H855   1.084       .  S
C851        C852   1.401       .  A
C851        O856   1.373       .  S
C852        C853   1.402       .  A
C853        C854   1.386       .  A
C853        H857   1.084       .  S
C854        O858   1.372       .  S
O856        H860   0.992       .  S
O858        H859   0.992       .  S
C861        C862   1.406   1_655  A
C861        C866   1.409       .  A
C862        C863   1.390       .  A
C862        H867   1.084   1_455  S
C863        C864   1.402       .  A
C863        O868   1.373       .  S
C864        C865   1.400       .  A
C865        C866   1.388   1_455  A
C865        H869   1.084       .  S
C866        O870   1.372       .  S
O868        H872   0.992       .  S
O870        H871   0.991       .  S
C873        C874   1.400       .  A
C874        C875   1.401       .  A
C874        H879   1.081       .  S
C875        C876   1.413       .  A
C875        O880   1.372       .  S
C877        C878   1.395       .  A
C877        H881   1.084       .  S
C878        O882   1.372       .  S
O880        H884   0.992       .  S
O882        H883   0.992       .  S
C885        C886   1.403       .  A
C885        C890   1.410       .  A
C886        C887   1.401       .  A
C886        H891   1.084   1_545  S
C887        C888   1.412       .  A
C887        O892   1.372   1_545  S
C888        C889   1.403       .  A
C889        C890   1.395       .  A
C889        H893   1.084       .  S
C890        O894   1.372       .  S
O892        H896   0.992       .  S
O894        H895   0.992   1_545  S
C897        C898   1.407       .  A
C897        C902   1.417       .  A
C898        C899   1.405       .  A
C898        H903   1.083       .  S
C899        C900   1.417       .  A
C899        O904   1.372       .  S
C900        C901   1.406       .  A
C901        C902   1.403       .  A
C901        H905   1.083       .  S
C902        O906   1.372       .  S
O904        H908   0.992       .  S
O906        H907   0.992       .  S
C909        C910   1.406       .  A
C909        C914   1.419       .  A
C910        C911   1.404       .  A
C910        H915   1.083       .  S
C911        C912   1.417       .  A
C911        O916   1.372       .  S
C912        C913   1.405       .  A
C913        C914   1.404       .  A
C913        H917   1.083       .  S
C914        O918   1.372       .  S
O916        H920   0.992       .  S
O918        H919   0.992       .  S
C921        C926   1.410   1_655  A
C922        C923   1.404       .  A
C922        H927   1.083       .  S
C923        C924   1.410       .  A
C923        O928   1.371       .  S
C925        C926   1.392   1_545  A
C925        H929   1.084       .  S
C926        O930   1.372   1_565  S
O928        H932   0.992       .  S
O930        H931   0.992       .  S
C933        C934   1.409       .  A
C934        C935   1.405       .  A
C934        H939   1.083       .  S
C935        O940   1.371       .  S
C936        C937   1.404   1_565  A
C937        C938   1.394       .  A
C937        H941   1.084       .  S
C938        O942   1.372       .  S
O940        H944   0.991       .  S
O942        H943   0.992       .  S
C945        C946   1.401   1_565  A
C946        C947   1.389       .  A
C946        H951   1.084       .  S
C947        C948   1.411   1_545  A
C947        O952   1.372       .  S
C949        C950   1.388       .  A
C949        H953   1.083       .  S
C950        O954   1.372       .  S
O952        H956   0.992       .  S
O954        H955   0.992       .  S
C957        C958   1.408       .  A
C958        C959   1.392       .  A
C958        H963   1.084       .  S
C959        O964   1.372       .  S
C960        C961   1.403       .  A
C961        C962   1.386       .  A
C961        H965   1.084       .  S
C962        O966   1.372       .  S
O964        H968   0.991       .  S
O966        H967   0.991       .  S
C969        C970   1.408       .  A
C969        C974   1.413       .  A
C970        C971   1.402       .  A
C970        H975   1.084       .  S
C971        C972   1.413       .  A
C971        O976   1.372       .  S
C972        C973   1.407       .  A
C973        C974   1.402       .  A
C973        H977   1.084       .  S
C974        O978   1.371       .  S
O976        H980   0.992       .  S
O978        H979   0.992       .  S
C981        C982   1.409       .  A
C981        C986   1.415       .  A
C982        C983   1.402       .  A
C982        H987   1.083       .  S
C983        C984   1.411       .  A
C983        O988   1.372       .  S
C984        C985   1.409       .  A
C985        C986   1.406       .  A
C985        H989   1.083       .  S
C986        O990   1.372       .  S
O988        H992   0.992       .  S
O990        H991   0.992       .  S
