geometry optimzed in LAMMPS
_audit_creation_date              2020-11-30 
_audit_creation_method            'lammps2cif' 
_symmetry_space_group_name_H-M    'P1' 
_symmetry_Int_Tables_number       1 
_symmetry_cell_setting            triclinic 
loop_ 
_symmetry_equiv_pos_as_xyz 
  x,y,z 
_cell_length_a                    40.04422577 
_cell_length_b                    40.02109531595229 
_cell_length_c                    28.4244668462127 
_cell_angle_alpha                 90.21763277723413 
_cell_angle_beta                  89.9746368940696 
_cell_angle_gamma                 90.03766166969406 
loop_ 
_atom_site_label 
_atom_site_type_symbol 
_atom_site_fract_x 
_atom_site_fract_y 
_atom_site_fract_z 
_atom_site_charge 
C1          C  0.99844932  0.39569010  0.39736517     0.41800
N2          N  0.01232566  0.42823230  0.45414669     0.00600
C3          C  0.40903087  0.03476376  0.07982198    -0.07200
H4          H  0.41064743  0.05695082  0.40118978     0.06100
C5          C  0.03576068  0.08632874  0.41715215    -0.07600
Co6        Co  0.45294555  0.45925030  0.50036443     0.74200
N7          N  0.43327437  0.01951704  0.44521000    -0.26800
Co8        Co  0.45920593  0.04552436  0.99733677     0.74100
C9          C  0.00718172  0.10127976  0.39303290     0.41900
N10         N  0.07093816  0.00981553  0.45460832     0.00300
N11         N  0.48950530  0.06850912  0.44732290     0.00400
N12         N  0.40599531  0.47831245  0.08127129    -0.47600
H13         H  0.44249568  0.40733423  0.40762281     0.06100
N14         N  0.43079642  0.48666172  0.44648930     0.00600
N15         N  0.48597664  0.07028489  0.04987243     0.00400
C16         C  0.49978646  0.10266654  0.10693739     0.42000
N17         N  0.06867545  0.47692937  0.45610003    -0.26200
C18         C  0.46260694  0.41279412  0.08721159    -0.07100
N19         N  0.02463590  0.40716257  0.42260939    -0.47300
N20         N  0.47363424  0.09126622  0.08152761    -0.47500
C21         C  0.49114823  0.39799611  0.11153731     0.41800
N22         N  0.42746191  0.48881612  0.04908482     0.00600
N23         N  0.06535667  0.47892068  0.05820508    -0.26200
N24         N  0.47952321  0.43078688  0.45177389    -0.26700
N25         N  0.06786992  0.01177309  0.05719557     0.00300
H26         H  0.08861399  0.44112266  0.10085371     0.06200
H27         H  0.05575271  0.09094962  0.09674031     0.06200
N28         N  0.42961745  0.02169407  0.04742846    -0.26800
N29         N  0.02233717  0.06650112  0.45010805    -0.26400
N30         N  0.00889557  0.43029557  0.05674709     0.00600
C31         C  0.39982963  0.00100518  0.38828774     0.42000
C32         C  0.08924389  0.46387916  0.42363942    -0.07600
N33         N  0.01878633  0.06768050  0.05234298    -0.26400
H34         H  0.06217401  0.09082993  0.41232895     0.06200
N35         N  0.41073422  0.47464853  0.41351345    -0.47600
H36         H  0.09339624  0.43750141  0.41777186     0.06200
C37         C  0.09972276  0.49693978  0.11422115     0.41900
C38         C  0.46842644  0.41125602  0.41672503    -0.07100
Co39       Co  0.03916971  0.45307890  0.50640122     0.73800
N40         N  0.09251849  0.02031531  0.42254949    -0.47300
C41         C  0.39348402  0.50590446  0.10236549     0.42100
N42         N  0.01895047  0.40986041  0.09044094    -0.47300
Co43       Co  0.04548728  0.03935607  0.00355645     0.73900
C44         C  0.02982578  0.08709806  0.08755436    -0.07700
C45         C  0.41473907  0.03091267  0.40938535    -0.07200
N46         N  0.47606340  0.43234036  0.05397925    -0.26700
N47         N  0.47941991  0.08918893  0.41395949    -0.47500
H48         H  0.40485298  0.06114640  0.08570050     0.06100
C49         C  0.08440123  0.46723046  0.09326543    -0.07600
Cl50       Cl  0.99920746  0.99930820  0.00191611    -0.50600
C51         C  0.10498744  0.99274629  0.40128856     0.41900
H52         H  0.43619013  0.40839137  0.09216764     0.06100
N53         N  0.08849746  0.02351805  0.08968762    -0.47300
C54         C  0.49532293  0.27994299  0.22766346     0.01600
C55         C  0.50149946  0.27987245  0.27659295     0.01500
C56         C  0.50551932  0.24933826  0.30011276    -0.19000
C57         C  0.50297761  0.21882461  0.27598005     0.01600
C58         C  0.49672178  0.21885984  0.22712014     0.01500
C59         C  0.49271939  0.24937983  0.20355496    -0.18500
H60         H  0.48866491  0.24936436  0.16583739     0.03600
H61         H  0.50955831  0.24928771  0.33783975     0.03600
C62         C  0.27905845  0.50231445  0.22549751     0.01600
C63         C  0.28073398  0.49789931  0.27464166     0.01500
C64         C  0.25106234  0.49448331  0.30057937    -0.19000
C65         C  0.21979539  0.49569567  0.27836455     0.01600
C66         C  0.21818339  0.49999560  0.22919598     0.01500
C67         C  0.24781810  0.50350009  0.20331175    -0.19000
H68         H  0.24658064  0.50635352  0.16542139     0.03600
H69         H  0.25228961  0.49166338  0.33847189     0.03600
C70         C  0.14613367  0.52808992  0.15347225    -0.14100
C71         C  0.12817122  0.49819670  0.14738802     0.08100
C72         C  0.13889560  0.46934448  0.17106931    -0.14100
C73         C  0.16759004  0.47020590  0.19914782    -0.14100
C74         C  0.18606726  0.49983693  0.20364664     0.08100
C75         C  0.17499969  0.52881286  0.18103671    -0.14100
H76         H  0.13847477  0.55072526  0.13571667     0.12100
H77         H  0.12550419  0.44598575  0.16732019     0.12100
H78         H  0.17594822  0.44757595  0.21624119     0.12100
H79         H  0.18905734  0.55186128  0.18416486     0.12100
C80         C  0.15047295  0.46337638  0.35646109    -0.14100
C81         C  0.13313055  0.99295871  0.36745179     0.08100
C82         C  0.14382405  0.02315958  0.34731939    -0.14100
C83         C  0.17156736  0.02385475  0.31740950    -0.14100
C84         C  0.18927197  0.49444018  0.30756022     0.08100
C85         C  0.17850070  0.46418887  0.32704347    -0.14100
H86         H  0.14296930  0.43973221  0.37142925     0.12100
H87         H  0.13091803  0.04632320  0.35506015     0.12100
H88         H  0.17965097  0.04741651  0.30264062     0.12100
H89         H  0.19196560  0.44127172  0.31970870     0.12100
C90         C  0.35656443  0.47596486  0.15923495    -0.14100
C91         C  0.36546694  0.50568501  0.13624081     0.08100
C92         C  0.34644800  0.53466672  0.14433560    -0.14100
C93         C  0.31847234  0.53364831  0.17376625    -0.14100
C94         C  0.30950278  0.50385973  0.19622536     0.08100
C95         C  0.32891733  0.47512158  0.18926554    -0.14100
H96         H  0.37083581  0.45329391  0.15368571     0.12100
H97         H  0.35255675  0.55788192  0.12697565     0.12100
H98         H  0.30365929  0.55602885  0.17883625     0.12100
H99         H  0.32221165  0.45191495  0.20631460     0.12100
C100        C  0.36150456  0.02784744  0.32966204    -0.14100
C101        C  0.37152697  0.99944065  0.35491306     0.08100
C102        C  0.35275584  0.46988446  0.35063844    -0.14100
C103        C  0.32356437  0.46924878  0.32375283    -0.14100
C104        C  0.31300280  0.49792622  0.29993425     0.08100
C105        C  0.33250556  0.52703994  0.30220257    -0.14100
H106        H  0.37561713  0.05087790  0.33189563     0.12100
H107        H  0.35992415  0.44755950  0.36951948     0.12100
H108        H  0.30887289  0.44653126  0.32210680     0.12100
H109        H  0.32468699  0.04939783  0.28392560     0.12100
C110        C  0.46881388  0.14984145  0.14483107    -0.14100
C111        C  0.49805571  0.13061591  0.14092942     0.08100
C112        C  0.02614253  0.13953769  0.16777390    -0.14100
C113        C  0.02534118  0.16774521  0.19683919    -0.14100
C114        C  0.49651225  0.18756113  0.19935168     0.08100
C115        C  0.46816278  0.17828724  0.17350483    -0.14100
H116        H  0.44678288  0.14351025  0.12458192     0.12100
H117        H  0.04893812  0.12506415  0.16580796     0.12100
H118        H  0.04750299  0.17465800  0.21641516     0.12100
H119        H  0.44568852  0.19331468  0.17515225     0.12100
C120        C  0.03579186  0.14958504  0.35380182    -0.14100
C121        C  0.00714956  0.12971499  0.35986169     0.08100
C122        C  0.47765043  0.13850699  0.33617505    -0.14100
C123        C  0.47661471  0.16696048  0.30777787    -0.14100
C124        C  0.50491607  0.18735661  0.30311669     0.08100
C125        C  0.03456328  0.17837487  0.32604350    -0.14100
H126        H  0.05884550  0.14358929  0.37173129     0.12100
H127        H  0.45523359  0.12362187  0.34015331     0.12100
H128        H  0.45349252  0.17358864  0.29040331     0.12100
H129        H  0.05663441  0.19384925  0.32275179     0.12100
C130        C  0.46319163  0.34813397  0.14739284    -0.14100
C131        C  0.49103494  0.36943151  0.14441181     0.08100
C132        C  0.01973178  0.36188900  0.17071400    -0.14100
C133        C  0.02078965  0.33326699  0.19879849    -0.14100
C134        C  0.49333855  0.31145980  0.20050849     0.08100
C135        C  0.46448794  0.31920102  0.17481198    -0.14100
H136        H  0.44082792  0.35313289  0.12727105     0.12100
H137        H  0.04151701  0.37789856  0.16902576     0.12100
H138        H  0.04333140  0.32763454  0.21823205     0.12100
H139        H  0.44305714  0.30267044  0.17575064     0.12100
C140        C  0.47253105  0.35970041  0.33519351    -0.14100
C141        C  0.00018443  0.36778921  0.36339380     0.08100
C142        C  0.02899790  0.34785481  0.36076277    -0.14100
C143        C  0.02963688  0.31954508  0.33188089    -0.14100
C144        C  0.50172777  0.31109786  0.30455692     0.08100
C145        C  0.47333546  0.33161080  0.30589827    -0.14100
H146        H  0.45008959  0.37476749  0.33624089     0.12100
H147        H  0.05066289  0.35353705  0.38212963     0.12100
H148        H  0.05176636  0.30397891  0.33119502     0.12100
H149        H  0.45148150  0.32533342  0.28524104     0.12100
C150        C  0.99844928  0.39569018  0.89736505     0.41800
N151        N  0.01232552  0.42823237  0.95414665     0.00600
C152        C  0.40903084  0.03476342  0.57982195    -0.07200
H153        H  0.41064776  0.05695179  0.90118883     0.06100
C154        C  0.03576054  0.08632870  0.91715226    -0.07600
Co155      Co  0.45294556  0.45925028  0.00036449     0.74200
N156        N  0.43327445  0.01951715  0.94520987    -0.26800
Co157      Co  0.45920590  0.04552435  0.49733678     0.74100
C158        C  0.00718177  0.10127982  0.89303289     0.41900
N159        N  0.07093811  0.00981561  0.95460842     0.00300
N160        N  0.48950524  0.06850917  0.94732285     0.00400
N161        N  0.40599534  0.47831230  0.58127125    -0.47600
H162        H  0.44249566  0.40733435  0.90762267     0.06100
N163        N  0.43079636  0.48666166  0.94648932     0.00600
N164        N  0.48597659  0.07028491  0.54987242     0.00400
C165        C  0.49978645  0.10266657  0.60693736     0.42000
N166        N  0.06867538  0.47692945  0.95610016    -0.26200
C167        C  0.46260686  0.41279414  0.58721152    -0.07100
N168        N  0.02463587  0.40716256  0.92260930    -0.47300
N169        N  0.47363420  0.09126617  0.58152764    -0.47500
C170        C  0.49114817  0.39799619  0.61153732     0.41800
N171        N  0.42746203  0.48881608  0.54908470     0.00600
N172        N  0.06535678  0.47892079  0.55820508    -0.26200
N173        N  0.47952325  0.43078686  0.95177394    -0.26700
N174        N  0.06786990  0.01177308  0.55719560     0.00300
H175        H  0.08861397  0.44112262  0.60085407     0.06200
H176        H  0.05575343  0.09095016  0.59674036     0.06200
N177        N  0.42961737  0.02169424  0.54742851    -0.26800
N178        N  0.02233717  0.06650110  0.95010812    -0.26400
N179        N  0.00889560  0.43029564  0.55674714     0.00600
C180        C  0.39982970  0.00100526  0.88828756     0.42000
C181        C  0.08924377  0.46387910  0.92363949    -0.07600
N182        N  0.01878641  0.06768058  0.55234302    -0.26400
H183        H  0.06217436  0.09082977  0.91232890     0.06200
N184        N  0.41073424  0.47464851  0.91351342    -0.47600
H185        H  0.09339576  0.43750187  0.91777192     0.06200
C186        C  0.09972283  0.49693985  0.61422108     0.41900
C187        C  0.46842648  0.41125601  0.91672506    -0.07100
Co188      Co  0.03916967  0.45307890  0.00640119     0.73800
N189        N  0.09251853  0.02031551  0.92254946    -0.47300
C190        C  0.39348403  0.50590412  0.60236542     0.42100
N191        N  0.01895048  0.40986037  0.59044108    -0.47300
Co192      Co  0.04548730  0.03935606  0.50355642     0.73900
C193        C  0.02982563  0.08709811  0.58755434    -0.07700
C194        C  0.41473918  0.03091251  0.90938527    -0.07200
N195        N  0.47606348  0.43234037  0.55397923    -0.26700
N196        N  0.47942005  0.08918885  0.91395959    -0.47500
H197        H  0.40485246  0.06114762  0.58570073     0.06100
C198        C  0.08440128  0.46723055  0.59326546    -0.07600
Cl199      Cl  0.99920747  0.99930819  0.50191612    -0.50600
C200        C  0.10498741  0.99274666  0.90128857     0.41900
H201        H  0.43619034  0.40839143  0.59216744     0.06100
N202        N  0.08849743  0.02351804  0.58968765    -0.47300
C203        C  0.49532306  0.27994301  0.72766352     0.01600
C204        C  0.50149954  0.27987246  0.77659306     0.01500
C205        C  0.50551944  0.24933824  0.80011267    -0.19000
C206        C  0.50297771  0.21882461  0.77598013     0.01600
C207        C  0.49672183  0.21885984  0.72712022     0.01500
C208        C  0.49271941  0.24937983  0.70355486    -0.18500
H209        H  0.48866545  0.24936436  0.66583830     0.03600
H210        H  0.50955900  0.24928769  0.83784041     0.03600
C211        C  0.27905849  0.50231440  0.72549743     0.01600
C212        C  0.28073405  0.49789936  0.77464127     0.01500
C213        C  0.25106238  0.49448317  0.80058016    -0.19000
C214        C  0.21979536  0.49569557  0.77836419     0.01600
C215        C  0.21818343  0.49999564  0.72919597     0.01500
C216        C  0.24781811  0.50350015  0.70331153    -0.19000
H217        H  0.24658064  0.50635330  0.66542145     0.03600
H218        H  0.25228944  0.49166367  0.83846599     0.03600
C219        C  0.14613374  0.52809009  0.65347213    -0.14100
C220        C  0.12817152  0.49819703  0.64738816     0.08100
C221        C  0.13889538  0.46934353  0.67106973    -0.14100
C222        C  0.16758999  0.47020699  0.69914748    -0.14100
C223        C  0.18606743  0.49983649  0.70364708     0.08100
C224        C  0.17499998  0.52881284  0.68103680    -0.14100
H225        H  0.13847525  0.55072443  0.63571749     0.12100
H226        H  0.12550681  0.44599074  0.66732120     0.12100
H227        H  0.17595024  0.44756997  0.71624613     0.12100
H228        H  0.18905703  0.55186035  0.68416505     0.12100
C229        C  0.15047295  0.46337631  0.85646141    -0.14100
C230        C  0.13313064  0.99295862  0.86745172     0.08100
C231        C  0.14382410  0.02316005  0.84731968    -0.14100
C232        C  0.17156758  0.02385460  0.81740982    -0.14100
C233        C  0.18927193  0.49443985  0.80756032     0.08100
C234        C  0.17850077  0.46418878  0.82704374    -0.14100
H235        H  0.14296923  0.43973252  0.87142921     0.12100
H236        H  0.13091926  0.04632109  0.85505973     0.12100
H237        H  0.17965183  0.04741842  0.80264028     0.12100
H238        H  0.19196589  0.44127167  0.81970963     0.12100
C239        C  0.35656444  0.47596468  0.65923529    -0.14100
C240        C  0.36546692  0.50568504  0.63624091     0.08100
C241        C  0.34644791  0.53466659  0.64433570    -0.14100
C242        C  0.31847235  0.53364811  0.67376627    -0.14100
C243        C  0.30950281  0.50385938  0.69622556     0.08100
C244        C  0.32891763  0.47512196  0.68926535    -0.14100
H245        H  0.37083602  0.45329420  0.65368588     0.12100
H246        H  0.35255677  0.55788232  0.62697518     0.12100
H247        H  0.30365903  0.55602889  0.67883656     0.12100
H248        H  0.32221138  0.45191148  0.70631782     0.12100
C249        C  0.36150473  0.02784796  0.82966200    -0.14100
C250        C  0.37152687  0.99944033  0.85491305     0.08100
C251        C  0.35275581  0.46988449  0.85063849    -0.14100
C252        C  0.32356439  0.46924887  0.82375290    -0.14100
C253        C  0.31300284  0.49792617  0.79993436     0.08100
C254        C  0.33250572  0.52704018  0.80220255    -0.14100
H255        H  0.37561521  0.05087464  0.83189545     0.12100
H256        H  0.35992420  0.44755946  0.86951973     0.12100
H257        H  0.30887273  0.44653103  0.82210650     0.12100
H258        H  0.32468650  0.04939962  0.78392409     0.12100
C259        C  0.46881384  0.14984146  0.64483111    -0.14100
C260        C  0.49805567  0.13061591  0.64092943     0.08100
C261        C  0.02614241  0.13953767  0.66777389    -0.14100
C262        C  0.02534111  0.16774514  0.69683913    -0.14100
C263        C  0.49651224  0.18756114  0.69935173     0.08100
C264        C  0.46816275  0.17828725  0.67350487    -0.14100
H265        H  0.44678283  0.14351026  0.62458194     0.12100
H266        H  0.04893799  0.12506411  0.66580794     0.12100
H267        H  0.04750317  0.17465797  0.71641525     0.12100
H268        H  0.44568849  0.19331471  0.67515230     0.12100
C269        C  0.03579227  0.14958510  0.85380216    -0.14100
C270        C  0.00714954  0.12971515  0.85986160     0.08100
C271        C  0.47765036  0.13850709  0.83617492    -0.14100
C272        C  0.47661511  0.16696032  0.80777823    -0.14100
C273        C  0.50491583  0.18735660  0.80311664     0.08100
C274        C  0.03456312  0.17837500  0.82604343    -0.14100
H275        H  0.05884317  0.14359017  0.87172958     0.12100
H276        H  0.45523355  0.12362166  0.84015362     0.12100
H277        H  0.45348947  0.17358944  0.79040132     0.12100
H278        H  0.05663520  0.19384938  0.82275146     0.12100
C279        C  0.46319150  0.34813399  0.64739277    -0.14100
C280        C  0.49103482  0.36943153  0.64441165     0.08100
C281        C  0.01973179  0.36188893  0.67071434    -0.14100
C282        C  0.02078918  0.33326707  0.69879832    -0.14100
C283        C  0.49333844  0.31145985  0.70050833     0.08100
C284        C  0.46448785  0.31920100  0.67481199    -0.14100
H285        H  0.44082778  0.35313295  0.62727111     0.12100
H286        H  0.04151674  0.37789883  0.66902643     0.12100
H287        H  0.04333343  0.32763389  0.71823459     0.12100
H288        H  0.44305705  0.30267048  0.67575074     0.12100
C289        C  0.47253105  0.35970066  0.83519356    -0.14100
C290        C  0.00018462  0.36778915  0.86339388     0.08100
C291        C  0.02899785  0.34785483  0.86076274    -0.14100
C292        C  0.02963699  0.31954500  0.83188093    -0.14100
C293        C  0.50172806  0.31109789  0.80455699     0.08100
C294        C  0.47333580  0.33161072  0.80589834    -0.14100
H295        H  0.45009214  0.37476611  0.83624081     0.12100
H296        H  0.05066344  0.35353717  0.88213034     0.12100
H297        H  0.05176577  0.30397924  0.83119480     0.12100
H298        H  0.45148176  0.32533357  0.78524139     0.12100
C299        C  0.99844937  0.89569023  0.39736513     0.41800
N300        N  0.01232565  0.92823241  0.45414662     0.00600
C301        C  0.40903084  0.53476375  0.07982194    -0.07200
H302        H  0.41064752  0.55695180  0.40118894     0.06100
C303        C  0.03576052  0.58632860  0.41715217    -0.07600
Co304      Co  0.45294556  0.95925026  0.50036441     0.74200
N305        N  0.43327439  0.51951710  0.44520990    -0.26800
Co306      Co  0.45920593  0.54552435  0.99733684     0.74100
C307        C  0.00718175  0.60127979  0.39303286     0.41900
N308        N  0.07093812  0.50981544  0.45460819     0.00300
N309        N  0.48950523  0.56850916  0.44732287     0.00400
N310        N  0.40599528  0.97831251  0.08127131    -0.47600
H311        H  0.44249717  0.90733462  0.40762297     0.06100
N312        N  0.43079634  0.98666151  0.44648926     0.00600
N313        N  0.48597652  0.57028489  0.04987251     0.00400
C314        C  0.49978654  0.60266655  0.10693737     0.42000
N315        N  0.06867543  0.97692937  0.45610011    -0.26200
C316        C  0.46260735  0.91279426  0.08721132    -0.07100
N317        N  0.02463590  0.90716259  0.42260944    -0.47300
N318        N  0.47363430  0.59126614  0.08152766    -0.47500
C319        C  0.49114796  0.89799622  0.11153728     0.41800
N320        N  0.42746195  0.98881618  0.04908474     0.00600
N321        N  0.06535683  0.97892055  0.05820535    -0.26200
N322        N  0.47952346  0.93078681  0.45177395    -0.26700
N323        N  0.06786996  0.51177337  0.05719568     0.00300
H324        H  0.08861470  0.94111936  0.10085454     0.06200
H325        H  0.05575231  0.59095001  0.09673961     0.06200
N326        N  0.42961743  0.52169411  0.04742852    -0.26800
N327        N  0.02233710  0.56650102  0.45010796    -0.26400
N328        N  0.00889549  0.93029570  0.05674707     0.00600
C329        C  0.39982972  0.50100534  0.38828753     0.42000
C330        C  0.08924380  0.96387938  0.42363958    -0.07600
N331        N  0.01878628  0.56768051  0.05234296    -0.26400
H332        H  0.06217461  0.59082967  0.41232886     0.06200
N333        N  0.41073428  0.97464845  0.41351352    -0.47600
H334        H  0.09339619  0.93750093  0.41777179     0.06200
C335        C  0.09972285  0.99693952  0.11422099     0.41900
C336        C  0.46842620  0.91125595  0.41672485    -0.07100
Co337      Co  0.03916969  0.95307892  0.50640121     0.73800
N338        N  0.09251848  0.52031526  0.42254925    -0.47300
C339        C  0.39348391  0.00590446  0.10236548     0.42100
N340        N  0.01895047  0.90986036  0.09044106    -0.47300
Co341      Co  0.04548729  0.53935605  0.00355640     0.73900
C342        C  0.02982594  0.58709809  0.08755439    -0.07700
C343        C  0.41473906  0.53091254  0.40938538    -0.07200
N344        N  0.47606311  0.93234022  0.05397930    -0.26700
N345        N  0.47941989  0.58918890  0.41395952    -0.47500
H346        H  0.40485281  0.56114672  0.08570042     0.06100
C347        C  0.08440124  0.96723079  0.09326526    -0.07600
Cl348      Cl  0.99920750  0.49930814  0.00191613    -0.50600
C349        C  0.10498744  0.49274625  0.40128839     0.41900
H350        H  0.43618651  0.90839077  0.09216792     0.06100
N351        N  0.08849734  0.52351808  0.08968741    -0.47300
C352        C  0.49532302  0.77994307  0.22766339     0.01600
C353        C  0.50149952  0.77987252  0.27659291     0.01500
C354        C  0.50551930  0.74933831  0.30011263    -0.19000
C355        C  0.50297774  0.71882463  0.27598010     0.01600
C356        C  0.49672180  0.71885981  0.22712013     0.01500
C357        C  0.49271946  0.74937988  0.20355493    -0.18500
H358        H  0.48866504  0.74936448  0.16583741     0.03600
H359        H  0.50955867  0.74928791  0.33784027     0.03600
C360        C  0.27905841  0.00231445  0.22549748     0.01600
C361        C  0.28073400  0.99789930  0.27464130     0.01500
C362        C  0.25106233  0.99448311  0.30058019    -0.19000
C363        C  0.21979528  0.99569570  0.27836417     0.01600
C364        C  0.21818338  0.99999564  0.22919589     0.01500
C365        C  0.24781805  0.00350023  0.20331156    -0.19000
H366        H  0.24658069  0.00635375  0.16542144     0.03600
H367        H  0.25228935  0.99166349  0.33846576     0.03600
C368        C  0.14613337  0.02809001  0.15347177    -0.14100
C369        C  0.12817136  0.99819684  0.14738805     0.08100
C370        C  0.13889524  0.96934377  0.17106947    -0.14100
C371        C  0.16759015  0.97020624  0.19914807    -0.14100
C372        C  0.18606721  0.99983655  0.20364677     0.08100
C373        C  0.17500017  0.02881337  0.18103682    -0.14100
H374        H  0.13847556  0.05072362  0.13571798     0.12100
H375        H  0.12550654  0.94598972  0.16732101     0.12100
H376        H  0.17594837  0.94757454  0.21624312     0.12100
H377        H  0.18905460  0.05185697  0.18416433     0.12100
C378        C  0.15047306  0.96337687  0.35646136    -0.14100
C379        C  0.13313077  0.49295848  0.36745159     0.08100
C380        C  0.14382400  0.52316028  0.34731969    -0.14100
C381        C  0.17156754  0.52385424  0.31740999    -0.14100
C382        C  0.18927185  0.99444010  0.30756040     0.08100
C383        C  0.17850097  0.96418857  0.32704377    -0.14100
H384        H  0.14296909  0.93973095  0.37143086     0.12100
H385        H  0.13092031  0.54631949  0.35505933     0.12100
H386        H  0.17965200  0.54741974  0.30263950     0.12100
H387        H  0.19196494  0.94127399  0.31971029     0.12100
C388        C  0.35656453  0.97596436  0.15923534    -0.14100
C389        C  0.36546668  0.00568526  0.13624100     0.08100
C390        C  0.34644777  0.03466707  0.14433565    -0.14100
C391        C  0.31847254  0.03364788  0.17376617    -0.14100
C392        C  0.30950254  0.00385965  0.19622559     0.08100
C393        C  0.32891744  0.97512247  0.18926528    -0.14100
H394        H  0.37083438  0.95329684  0.15368649     0.12100
H395        H  0.35255654  0.05788148  0.12697561     0.12100
H396        H  0.30365723  0.05603191  0.17883701     0.12100
H397        H  0.32221061  0.95191026  0.20631848     0.12100
C398        C  0.36150490  0.52784859  0.32966180    -0.14100
C399        C  0.37152678  0.49944054  0.35491290     0.08100
C400        C  0.35275562  0.96988432  0.35063842    -0.14100
C401        C  0.32356452  0.96924880  0.32375303    -0.14100
C402        C  0.31300283  0.99792562  0.29993455     0.08100
C403        C  0.33250565  0.02704053  0.30220233    -0.14100
H404        H  0.37561389  0.55087280  0.33189535     0.12100
H405        H  0.35992437  0.94755839  0.36952062     0.12100
H406        H  0.30887158  0.94652886  0.32210620     0.12100
H407        H  0.32468572  0.54940212  0.28392220     0.12100
C408        C  0.46881403  0.64984127  0.14483103    -0.14100
C409        C  0.49805574  0.63061580  0.14092940     0.08100
C410        C  0.02614242  0.63953778  0.16777389    -0.14100
C411        C  0.02534114  0.66774523  0.19683915    -0.14100
C412        C  0.49651255  0.68756099  0.19935173     0.08100
C413        C  0.46816250  0.67828747  0.17350490    -0.14100
H414        H  0.44678287  0.64351037  0.12458217     0.12100
H415        H  0.04893844  0.62506391  0.16580805     0.12100
H416        H  0.04750268  0.67465800  0.21641504     0.12100
H417        H  0.44569158  0.69331285  0.17515215     0.12100
C418        C  0.03579219  0.64958503  0.35380206    -0.14100
C419        C  0.00714959  0.62971515  0.35986163     0.08100
C420        C  0.47765035  0.63850713  0.33617497    -0.14100
C421        C  0.47661470  0.66696060  0.30777794    -0.14100
C422        C  0.50491600  0.68735662  0.30311675     0.08100
C423        C  0.03456328  0.67837502  0.32604347    -0.14100
H424        H  0.05884369  0.64358977  0.37172967     0.12100
H425        H  0.45523338  0.62362189  0.34015346     0.12100
H426        H  0.45349195  0.67358912  0.29040315     0.12100
H427        H  0.05663479  0.69384909  0.32275142     0.12100
C428        C  0.46319192  0.84813413  0.14739320    -0.14100
C429        C  0.49103490  0.86943176  0.14441180     0.08100
C430        C  0.01973166  0.86188888  0.17071448    -0.14100
C431        C  0.02078906  0.83326712  0.19879836    -0.14100
C432        C  0.49333879  0.81146002  0.20050831     0.08100
C433        C  0.46448763  0.81920087  0.17481217    -0.14100
H434        H  0.44082638  0.85313333  0.12727101     0.12100
H435        H  0.04151697  0.87789906  0.16902660     0.12100
H436        H  0.04333372  0.82763385  0.21823488     0.12100
H437        H  0.44305973  0.80267225  0.17575093     0.12100
C438        C  0.47253095  0.85970060  0.33519362    -0.14100
C439        C  0.00018439  0.86778934  0.36339398     0.08100
C440        C  0.02899767  0.84785463  0.36076246    -0.14100
C441        C  0.02963666  0.81954544  0.33188113    -0.14100
C442        C  0.50172800  0.81109790  0.30455685     0.08100
C443        C  0.47333564  0.83161067  0.30589831    -0.14100
H444        H  0.45009181  0.87476616  0.33624088     0.12100
H445        H  0.05066512  0.85353777  0.38213204     0.12100
H446        H  0.05176862  0.80397734  0.33119453     0.12100
H447        H  0.45148184  0.82533351  0.28524157     0.12100
C448        C  0.99844939  0.89569017  0.89736512     0.41800
N449        N  0.01232547  0.92823249  0.95414669     0.00600
C450        C  0.40903072  0.53476420  0.57982208    -0.07200
H451        H  0.41064755  0.55695078  0.90118966     0.06100
C452        C  0.03576077  0.58632869  0.91715210    -0.07600
Co453      Co  0.45294552  0.95925029  0.00036443     0.74200
N454        N  0.43327438  0.51951700  0.94521003    -0.26800
Co455      Co  0.45920594  0.54552438  0.49733677     0.74100
C456        C  0.00718174  0.60127983  0.89303290     0.41900
N457        N  0.07093815  0.50981547  0.95460838     0.00300
N458        N  0.48950530  0.56850919  0.94732284     0.00400
N459        N  0.40599538  0.97831244  0.58127117    -0.47600
H460        H  0.44249715  0.90733460  0.90762295     0.06100
N461        N  0.43079636  0.98666161  0.94648929     0.00600
N462        N  0.48597655  0.57028498  0.54987244     0.00400
C463        C  0.49978658  0.60266659  0.60693731     0.42000
N464        N  0.06867533  0.97692975  0.95610022    -0.26200
C465        C  0.46260749  0.91279428  0.58721127    -0.07100
N466        N  0.02463597  0.90716251  0.92260934    -0.47300
N467        N  0.47363430  0.59126609  0.58152756    -0.47500
C468        C  0.49114792  0.89799613  0.61153732     0.41800
N469        N  0.42746188  0.98881605  0.54908477     0.00600
N470        N  0.06535683  0.97892054  0.55820536    -0.26200
N471        N  0.47952342  0.93078683  0.95177396    -0.26700
N472        N  0.06786992  0.51177324  0.55719536     0.00300
H473        H  0.08861468  0.94111933  0.60085456     0.06200
H474        H  0.05575295  0.59095006  0.59674002     0.06200
N475        N  0.42961755  0.52169382  0.54742835    -0.26800
N476        N  0.02233721  0.56650107  0.95010808    -0.26400
N477        N  0.00889553  0.93029574  0.55674703     0.00600
C478        C  0.39982967  0.50100529  0.88828763     0.42000
C479        C  0.08924395  0.96387881  0.92363929    -0.07600
N480        N  0.01878631  0.56768055  0.55234291    -0.26400
H481        H  0.06217373  0.59082958  0.91232889     0.06200
N482        N  0.41073429  0.97464851  0.91351360    -0.47600
H483        H  0.09339563  0.93750531  0.91777248     0.06200
C484        C  0.09972282  0.99693951  0.61422105     0.41900
C485        C  0.46842613  0.91125596  0.91672487    -0.07100
Co486      Co  0.03916967  0.95307893  0.00640121     0.73800
N487        N  0.09251847  0.52031528  0.92254937    -0.47300
C488        C  0.39348392  0.00590436  0.60236550     0.42100
N489        N  0.01895048  0.90986044  0.59044095    -0.47300
Co490      Co  0.04548727  0.53935604  0.50355629     0.73900
C491        C  0.02982579  0.58709808  0.58755429    -0.07700
C492        C  0.41473905  0.53091271  0.90938536    -0.07200
N493        N  0.47606313  0.93234019  0.55397932    -0.26700
N494        N  0.47942008  0.58918880  0.91395960    -0.47500
H495        H  0.40485331  0.56114278  0.58569968     0.06100
C496        C  0.08440122  0.96723079  0.59326529    -0.07600
Cl497      Cl  0.99920749  0.49930813  0.50191608    -0.50600
C498        C  0.10498735  0.49274624  0.90128844     0.41900
H499        H  0.43618590  0.90839067  0.59216799     0.06100
N500        N  0.08849748  0.52351818  0.58968740    -0.47300
C501        C  0.49532298  0.77994304  0.72766348     0.01600
C502        C  0.50149945  0.77987250  0.77659304     0.01500
C503        C  0.50551926  0.74933821  0.80011269    -0.19000
C504        C  0.50297769  0.71882456  0.77598011     0.01600
C505        C  0.49672176  0.71885979  0.72712015     0.01500
C506        C  0.49271944  0.74937987  0.70355499    -0.18500
H507        H  0.48866502  0.74936447  0.66583743     0.03600
H508        H  0.50955864  0.74928764  0.83784033     0.03600
C509        C  0.27905839  0.00231448  0.72549746     0.01600
C510        C  0.28073398  0.99789920  0.77464131     0.01500
C511        C  0.25106226  0.99448322  0.80058018    -0.19000
C512        C  0.21979526  0.99569558  0.77836409     0.01600
C513        C  0.21818332  0.99999569  0.72919585     0.01500
C514        C  0.24781800  0.00350015  0.70331161    -0.19000
H515        H  0.24658042  0.00635359  0.66542108     0.03600
H516        H  0.25228912  0.99166358  0.83846583     0.03600
C517        C  0.14613347  0.02808990  0.65347204    -0.14100
C518        C  0.12817134  0.99819697  0.64738801     0.08100
C519        C  0.13889528  0.96934377  0.67106935    -0.14100
C520        C  0.16759016  0.97020635  0.69914780    -0.14100
C521        C  0.18606725  0.99983662  0.70364664     0.08100
C522        C  0.17500000  0.02881330  0.68103682    -0.14100
H523        H  0.13847508  0.05072492  0.63571681     0.12100
H524        H  0.12550661  0.94598984  0.66732091     0.12100
H525        H  0.17594897  0.94757414  0.71624230     0.12100
H526        H  0.18905555  0.05185799  0.68416453     0.12100
C527        C  0.15047284  0.96337686  0.85646112    -0.14100
C528        C  0.13313058  0.49295857  0.86745156     0.08100
C529        C  0.14382396  0.52315970  0.84731943    -0.14100
C530        C  0.17156745  0.52385451  0.81740950    -0.14100
C531        C  0.18927186  0.99444036  0.80756029     0.08100
C532        C  0.17850092  0.96418844  0.82704334    -0.14100
H533        H  0.14296905  0.93973118  0.87143000     0.12100
H534        H  0.13091872  0.54632140  0.85505909     0.12100
H535        H  0.17965109  0.54741691  0.80264061     0.12100
H536        H  0.19196378  0.94127521  0.81971007     0.12100
C537        C  0.35656436  0.97596436  0.65923524    -0.14100
C538        C  0.36546684  0.00568478  0.63624104     0.08100
C539        C  0.34644816  0.03466687  0.64433551    -0.14100
C540        C  0.31847237  0.03364806  0.67376647    -0.14100
C541        C  0.30950268  0.00385937  0.69622553     0.08100
C542        C  0.32891733  0.97512186  0.68926539    -0.14100
H543        H  0.37083521  0.95329486  0.65368624     0.12100
H544        H  0.35255602  0.05787963  0.62697660     0.12100
H545        H  0.30365959  0.05602866  0.67883631     0.12100
H546        H  0.32221091  0.95191157  0.70631720     0.12100
C547        C  0.36150485  0.52784819  0.82966188    -0.14100
C548        C  0.37152690  0.49944062  0.85491291     0.08100
C549        C  0.35275563  0.96988452  0.85063820    -0.14100
C550        C  0.32356462  0.96924870  0.82375315    -0.14100
C551        C  0.31300279  0.99792574  0.79993452     0.08100
C552        C  0.33250555  0.02704017  0.80220250    -0.14100
H553        H  0.37561541  0.55087459  0.83189532     0.12100
H554        H  0.35992511  0.94755687  0.86952153     0.12100
H555        H  0.30887168  0.94652905  0.82210662     0.12100
H556        H  0.32468615  0.54940108  0.78392342     0.12100
C557        C  0.46881406  0.64984127  0.64483107    -0.14100
C558        C  0.49805574  0.63061580  0.64092939     0.08100
C559        C  0.02614239  0.63953776  0.66777390    -0.14100
C560        C  0.02534112  0.66774521  0.69683917    -0.14100
C561        C  0.49651251  0.68756098  0.69935176     0.08100
C562        C  0.46816247  0.67828746  0.67350492    -0.14100
H563        H  0.44678282  0.64351032  0.62458213     0.12100
H564        H  0.04893843  0.62506390  0.66580807     0.12100
H565        H  0.04750265  0.67465797  0.71641504     0.12100
H566        H  0.44569155  0.69331283  0.67515216     0.12100
C567        C  0.03579206  0.64958508  0.85380187    -0.14100
C568        C  0.00714965  0.62971517  0.85986165     0.08100
C569        C  0.47765059  0.63850729  0.83617492    -0.14100
C570        C  0.47661450  0.66696045  0.80777801    -0.14100
C571        C  0.50491596  0.68735654  0.80311681     0.08100
C572        C  0.03456337  0.67837499  0.82604348    -0.14100
H573        H  0.05884458  0.64358979  0.87173059     0.12100
H574        H  0.45523090  0.62362037  0.84015391     0.12100
H575        H  0.45349203  0.67358915  0.79040316     0.12100
H576        H  0.05663461  0.69384898  0.82275160     0.12100
C577        C  0.46319217  0.84813393  0.64739325    -0.14100
C578        C  0.49103466  0.86943155  0.64441162     0.08100
C579        C  0.01973163  0.86188891  0.67071417    -0.14100
C580        C  0.02078944  0.83326725  0.69879821    -0.14100
C581        C  0.49333883  0.81145994  0.70050846     0.08100
C582        C  0.46448762  0.81920086  0.67481191    -0.14100
H583        H  0.44082485  0.85313339  0.62726855     0.12100
H584        H  0.04151872  0.87790020  0.66902585     0.12100
H585        H  0.04333295  0.82763385  0.71823321     0.12100
H586        H  0.44305965  0.80267185  0.67575068     0.12100
C587        C  0.47253152  0.85970027  0.83519356    -0.14100
C588        C  0.00018455  0.86778903  0.86339385     0.08100
C589        C  0.02899796  0.84785467  0.86076270    -0.14100
C590        C  0.02963662  0.81954527  0.83188093    -0.14100
C591        C  0.50172807  0.81109787  0.80455701     0.08100
C592        C  0.47333540  0.83161101  0.80589845    -0.14100
H593        H  0.45008735  0.87476938  0.83624125     0.12100
H594        H  0.05066302  0.85353717  0.88213000     0.12100
H595        H  0.05176846  0.80397749  0.83119493     0.12100
H596        H  0.45148170  0.82533343  0.78524128     0.12100
C597        C  0.49844930  0.39569008  0.39736517     0.41800
N598        N  0.51232569  0.42823226  0.45414663     0.00600
C599        C  0.90903085  0.03476349  0.07982187    -0.07200
H600        H  0.91064775  0.05695058  0.40118979     0.06100
C601        C  0.53576046  0.08632869  0.41715213    -0.07600
Co602      Co  0.95294557  0.45925027  0.50036446     0.74200
N603        N  0.93327442  0.01951699  0.44521003    -0.26800
Co604      Co  0.95920593  0.04552438  0.99733676     0.74100
C605        C  0.50718172  0.10127980  0.39303286     0.41900
N606        N  0.57093806  0.00981561  0.45460832     0.00300
N607        N  0.98950529  0.06850911  0.44732294     0.00400
N608        N  0.90599537  0.47831249  0.08127129    -0.47600
H609        H  0.94249591  0.40733445  0.40762279     0.06100
N610        N  0.93079641  0.48666167  0.44648933     0.00600
N611        N  0.98597653  0.07028494  0.04987248     0.00400
C612        C  0.99978653  0.10266654  0.10693742     0.42000
N613        N  0.56867526  0.47692970  0.45610024    -0.26200
C614        C  0.96260684  0.41279407  0.08721164    -0.07100
N615        N  0.52463588  0.40716255  0.42260940    -0.47300
N616        N  0.97363430  0.09126618  0.08152757    -0.47500
C617        C  0.99114822  0.39799611  0.11153726     0.41800
N618        N  0.92746196  0.48881613  0.04908483     0.00600
N619        N  0.56535676  0.47892078  0.05820517    -0.26200
N620        N  0.97952330  0.43078689  0.45177398    -0.26700
N621        N  0.56786981  0.01177322  0.05719561     0.00300
H622        H  0.58861402  0.44112258  0.10085405     0.06200
H623        H  0.55575227  0.09094955  0.09674015     0.06200
N624        N  0.92961743  0.02169424  0.04742854    -0.26800
N625        N  0.52233711  0.06650110  0.45010797    -0.26400
N626        N  0.50889568  0.43029554  0.05674716     0.00600
C627        C  0.89982975  0.00100524  0.38828762     0.42000
C628        C  0.58924399  0.46387872  0.42363934    -0.07600
N629        N  0.51878626  0.06768051  0.05234300    -0.26400
H630        H  0.56217466  0.09083002  0.41232881     0.06200
N631        N  0.91073425  0.47464839  0.41351346    -0.47600
H632        H  0.59339540  0.43750537  0.41777251     0.06200
C633        C  0.59972284  0.49693984  0.11422104     0.41900
C634        C  0.96842647  0.41125603  0.41672506    -0.07100
Co635      Co  0.53916969  0.45307891  0.50640120     0.73800
N636        N  0.59251847  0.02031550  0.42254935    -0.47300
C637        C  0.89348398  0.50590447  0.10236545     0.42100
N638        N  0.51895047  0.40986045  0.09044090    -0.47300
Co639      Co  0.54548729  0.03935606  0.00355647     0.73900
C640        C  0.52982590  0.08709809  0.08755444    -0.07700
C641        C  0.91473912  0.03091277  0.40938532    -0.07200
N642        N  0.97606345  0.43234036  0.05397925    -0.26700
N643        N  0.97941994  0.08918886  0.41395957    -0.47500
H644        H  0.90485241  0.06114757  0.08570043     0.06100
C645        C  0.58440129  0.46723054  0.09326548    -0.07600
Cl646      Cl  0.49920743  0.99930819  0.00191612    -0.50600
C647        C  0.60498739  0.99274661  0.40128851     0.41900
H648        H  0.93619071  0.40839139  0.09216760     0.06100
N649        N  0.58849741  0.02351817  0.08968755    -0.47300
C650        C  0.99532310  0.27994300  0.22766352     0.01600
C651        C  0.00149951  0.27987248  0.27659297     0.01500
C652        C  0.00551933  0.24933825  0.30011281    -0.19000
C653        C  0.00297767  0.21882457  0.27598009     0.01600
C654        C  0.99672185  0.21885982  0.22712020     0.01500
C655        C  0.99271942  0.24937981  0.20355483    -0.18500
H656        H  0.98866556  0.24936435  0.16583827     0.03600
H657        H  0.00955843  0.24928771  0.33783975     0.03600
C658        C  0.77905848  0.50231442  0.22549744     0.01600
C659        C  0.78073406  0.49789924  0.27464125     0.01500
C660        C  0.75106236  0.49448308  0.30058013    -0.19000
C661        C  0.71979530  0.49569552  0.27836419     0.01600
C662        C  0.71818337  0.49999567  0.22919598     0.01500
C663        C  0.74781807  0.50350017  0.20331153    -0.19000
H664        H  0.74658057  0.50635333  0.16542169     0.03600
H665        H  0.75228944  0.49166331  0.33846604     0.03600
C666        C  0.64613366  0.52809012  0.15347201    -0.14100
C667        C  0.62817142  0.49819703  0.14738810     0.08100
C668        C  0.63889531  0.46934377  0.17106950    -0.14100
C669        C  0.66759005  0.47020676  0.19914774    -0.14100
C670        C  0.68606736  0.49983676  0.20364687     0.08100
C671        C  0.67499990  0.52881299  0.18103678    -0.14100
H672        H  0.63847523  0.55072439  0.13571744     0.12100
H673        H  0.62550668  0.44599034  0.16732112     0.12100
H674        H  0.67594927  0.44757277  0.21624429     0.12100
H675        H  0.68905688  0.55186030  0.18416471     0.12100
C676        C  0.65047292  0.46337645  0.35646160    -0.14100
C677        C  0.63313063  0.99295865  0.36745166     0.08100
C678        C  0.64382412  0.02315991  0.34731960    -0.14100
C679        C  0.67156753  0.02385461  0.31740982    -0.14100
C680        C  0.68927183  0.49444004  0.30756039     0.08100
C681        C  0.67850092  0.46418875  0.32704375    -0.14100
H682        H  0.64297011  0.43973351  0.37142920     0.12100
H683        H  0.63091887  0.04632169  0.35505991     0.12100
H684        H  0.67965176  0.04741820  0.30264040     0.12100
H685        H  0.69196482  0.44127322  0.31971018     0.12100
C686        C  0.85656449  0.47596487  0.15923518    -0.14100
C687        C  0.86546692  0.50568505  0.13624088     0.08100
C688        C  0.84644795  0.53466671  0.14433564    -0.14100
C689        C  0.81847232  0.53364820  0.17376620    -0.14100
C690        C  0.80950281  0.50385964  0.19622540     0.08100
C691        C  0.82891748  0.47512172  0.18926556    -0.14100
H692        H  0.87083594  0.45329406  0.15368599     0.12100
H693        H  0.85255669  0.55788197  0.12697540     0.12100
H694        H  0.80365905  0.55602896  0.17883635     0.12100
H695        H  0.82221199  0.45191413  0.20631600     0.12100
C696        C  0.86150487  0.02784813  0.32966198    -0.14100
C697        C  0.87152683  0.99944021  0.35491310     0.08100
C698        C  0.85275552  0.46988454  0.35063817    -0.14100
C699        C  0.82356442  0.46924861  0.32375306    -0.14100
C700        C  0.81300282  0.49792568  0.29993450     0.08100
C701        C  0.83250555  0.52704032  0.30220229    -0.14100
H702        H  0.87561394  0.05087292  0.33189534     0.12100
H703        H  0.85992509  0.44755647  0.36952194     0.12100
H704        H  0.80887157  0.44652976  0.32210637     0.12100
H705        H  0.82468660  0.04939924  0.28392405     0.12100
C706        C  0.96881418  0.14984134  0.14483115    -0.14100
C707        C  0.99805574  0.13061585  0.14092938     0.08100
C708        C  0.52614247  0.13953772  0.16777392    -0.14100
C709        C  0.52534113  0.16774525  0.19683922    -0.14100
C710        C  0.99651256  0.18756104  0.19935171     0.08100
C711        C  0.96816244  0.17828752  0.17350491    -0.14100
H712        H  0.94678247  0.14351023  0.12458168     0.12100
H713        H  0.54893810  0.12506418  0.16580806     0.12100
H714        H  0.54750265  0.17465795  0.21641497     0.12100
H715        H  0.94569162  0.19331285  0.17515205     0.12100
C716        C  0.53579222  0.14958506  0.35380207    -0.14100
C717        C  0.50714957  0.12971508  0.35986156     0.08100
C718        C  0.97765066  0.13850710  0.33617506    -0.14100
C719        C  0.97661445  0.16696034  0.30777789    -0.14100
C720        C  0.00491592  0.18735650  0.30311676     0.08100
C721        C  0.53456300  0.17837478  0.32604349    -0.14100
H722        H  0.55884378  0.14358973  0.37172976     0.12100
H723        H  0.95523185  0.12362043  0.34015371     0.12100
H724        H  0.95349258  0.17358853  0.29040339     0.12100
H725        H  0.55663608  0.19384991  0.32275121     0.12100
C726        C  0.96319137  0.34813406  0.14739274    -0.14100
C727        C  0.99103497  0.36943154  0.14441183     0.08100
C728        C  0.51973185  0.36188890  0.17071444    -0.14100
C729        C  0.52078922  0.33326705  0.19879841    -0.14100
C730        C  0.99333849  0.31145982  0.20050838     0.08100
C731        C  0.96448807  0.31920103  0.17481219    -0.14100
H732        H  0.94082912  0.35313287  0.12727310     0.12100
H733        H  0.54151713  0.37789904  0.16902650     0.12100
H734        H  0.54333350  0.32763383  0.21823474     0.12100
H735        H  0.94305687  0.30267042  0.17575091     0.12100
C736        C  0.97253107  0.35970055  0.33519360    -0.14100
C737        C  0.50018426  0.36778918  0.36339379     0.08100
C738        C  0.52899785  0.34785477  0.36076287    -0.14100
C739        C  0.52963682  0.31954491  0.33188077    -0.14100
C740        C  0.00172798  0.31109791  0.30455693     0.08100
C741        C  0.97333549  0.33161080  0.30589827    -0.14100
H742        H  0.95009052  0.37476738  0.33624080     0.12100
H743        H  0.55066209  0.35353650  0.38212927     0.12100
H744        H  0.55176536  0.30397947  0.33119461     0.12100
H745        H  0.95148199  0.32533366  0.28524154     0.12100
C746        C  0.49844934  0.39569018  0.89736509     0.41800
N747        N  0.51232567  0.42823236  0.95414663     0.00600
C748        C  0.90903083  0.03476365  0.57982196    -0.07200
H749        H  0.91064769  0.05695164  0.90118893     0.06100
C750        C  0.53576044  0.08632865  0.91715229    -0.07600
Co751      Co  0.95294556  0.45925029  0.00036447     0.74200
N752        N  0.93327440  0.01951710  0.94520988    -0.26800
Co753      Co  0.95920590  0.04552435  0.49733683     0.74100
C754        C  0.50718183  0.10127981  0.89303285     0.41900
N755        N  0.57093814  0.00981554  0.95460836     0.00300
N756        N  0.98950526  0.06850913  0.94732290     0.00400
N757        N  0.90599537  0.47831245  0.58127130    -0.47600
H758        H  0.94249558  0.40733409  0.90762267     0.06100
N759        N  0.93079647  0.48666167  0.94648929     0.00600
N760        N  0.98597654  0.07028494  0.54987251     0.00400
C761        C  0.99978651  0.10266658  0.60693740     0.42000
N762        N  0.56867549  0.47692938  0.95610012    -0.26200
C763        C  0.96260683  0.41279409  0.58721158    -0.07100
N764        N  0.52463594  0.40716262  0.92260938    -0.47300
N765        N  0.97363427  0.09126615  0.58152757    -0.47500
C766        C  0.99114826  0.39799619  0.61153735     0.41800
N767        N  0.92746192  0.48881611  0.54908480     0.00600
N768        N  0.56535674  0.47892079  0.55820511    -0.26200
N769        N  0.97952324  0.43078683  0.95177389    -0.26700
N770        N  0.56786998  0.01177323  0.55719548     0.00300
H771        H  0.58861394  0.44112261  0.60085407     0.06200
H772        H  0.55575293  0.09095003  0.59673995     0.06200
N773        N  0.92961738  0.02169414  0.54742855    -0.26800
N774        N  0.52233730  0.06650111  0.95010808    -0.26400
N775        N  0.50889564  0.43029560  0.55674716     0.00600
C776        C  0.89982975  0.00100525  0.88828758     0.42000
C777        C  0.58924393  0.46387922  0.92363951    -0.07600
N778        N  0.51878629  0.06768060  0.55234292    -0.26400
H779        H  0.56217537  0.09083009  0.91232886     0.06200
N780        N  0.91073420  0.47464851  0.91351347    -0.47600
H781        H  0.59339629  0.43750138  0.91777183     0.06200
C782        C  0.59972274  0.49693983  0.61422098     0.41900
C783        C  0.96842645  0.41125598  0.91672499    -0.07100
Co784      Co  0.53916971  0.45307890  0.00640121     0.73800
N785        N  0.59251845  0.02031531  0.92254944    -0.47300
C786        C  0.89348400  0.50590445  0.60236542     0.42100
N787        N  0.51895046  0.40986040  0.59044103    -0.47300
Co788      Co  0.54548728  0.03935611  0.50355636     0.73900
C789        C  0.52982573  0.08709812  0.58755429    -0.07700
C790        C  0.91473913  0.03091256  0.90938533    -0.07200
N791        N  0.97606356  0.43234035  0.55397926    -0.26700
N792        N  0.97941999  0.08918887  0.91395955    -0.47500
H793        H  0.90485243  0.06114716  0.58570038     0.06100
C794        C  0.58440121  0.46723051  0.59326545    -0.07600
Cl795      Cl  0.49920742  0.99930819  0.50191610    -0.50600
C796        C  0.60498736  0.99274628  0.90128852     0.41900
H797        H  0.93619090  0.40839142  0.59216747     0.06100
N798        N  0.58849744  0.02351806  0.58968750    -0.47300
C799        C  0.99532297  0.27994300  0.72766345     0.01600
C800        C  0.00149958  0.27987244  0.77659296     0.01500
C801        C  0.00551935  0.24933825  0.80011276    -0.19000
C802        C  0.00297760  0.21882461  0.77598005     0.01600
C803        C  0.99672182  0.21885981  0.72712009     0.01500
C804        C  0.99271951  0.24937981  0.70355495    -0.18500
H805        H  0.98866508  0.24936434  0.66583723     0.03600
H806        H  0.00955829  0.24928769  0.83783984     0.03600
C807        C  0.77905844  0.50231442  0.72549732     0.01600
C808        C  0.78073398  0.49789935  0.77464116     0.01500
C809        C  0.75106234  0.49448322  0.80058015    -0.19000
C810        C  0.71979531  0.49569569  0.77836413     0.01600
C811        C  0.71818335  0.49999565  0.72919589     0.01500
C812        C  0.74781804  0.50350012  0.70331152    -0.19000
H813        H  0.74658045  0.50635357  0.66542123     0.03600
H814        H  0.75228938  0.49166375  0.83846570     0.03600
C815        C  0.64613358  0.52809007  0.65347206    -0.14100
C816        C  0.62817127  0.49819681  0.64738798     0.08100
C817        C  0.63889543  0.46934422  0.67106922    -0.14100
C818        C  0.66759012  0.47020609  0.69914789    -0.14100
C819        C  0.68606727  0.49983691  0.70364665     0.08100
C820        C  0.67499983  0.52881302  0.68103683    -0.14100
H821        H  0.63847528  0.55072445  0.63571713     0.12100
H822        H  0.62550547  0.44598758  0.66732029     0.12100
H823        H  0.67594826  0.44757576  0.71624148     0.12100
H824        H  0.68905670  0.55186034  0.68416485     0.12100
C825        C  0.65047303  0.46337664  0.85646101    -0.14100
C826        C  0.63313048  0.99295878  0.86745163     0.08100
C827        C  0.64382394  0.02315964  0.84731940    -0.14100
C828        C  0.67156732  0.02385487  0.81740949    -0.14100
C829        C  0.68927199  0.49444028  0.80756023     0.08100
C830        C  0.67850054  0.46418922  0.82704354    -0.14100
H831        H  0.64296922  0.43973219  0.87142934     0.12100
H832        H  0.63091803  0.04632308  0.85506012     0.12100
H833        H  0.67965080  0.04741655  0.80264074     0.12100
H834        H  0.69196605  0.44127103  0.81970848     0.12100
C835        C  0.85656459  0.47596485  0.65923496    -0.14100
C836        C  0.86546698  0.50568496  0.63624085     0.08100
C837        C  0.84644817  0.53466673  0.64433551    -0.14100
C838        C  0.81847217  0.53364848  0.67376641    -0.14100
C839        C  0.80950286  0.50385957  0.69622525     0.08100
C840        C  0.82891739  0.47512139  0.68926570    -0.14100
H841        H  0.87083578  0.45329417  0.65368589     0.12100
H842        H  0.85255621  0.55788094  0.62697619     0.12100
H843        H  0.80366078  0.55602699  0.67883589     0.12100
H844        H  0.82221223  0.45191558  0.70631416     0.12100
C845        C  0.86150473  0.02784777  0.82966201    -0.14100
C846        C  0.87152693  0.99944039  0.85491309     0.08100
C847        C  0.85275553  0.46988411  0.85063843    -0.14100
C848        C  0.82356457  0.46924931  0.82375284    -0.14100
C849        C  0.81300261  0.49792593  0.79993428     0.08100
C850        C  0.83250566  0.52703994  0.80220274    -0.14100
H851        H  0.87561531  0.05087547  0.83189549     0.12100
H852        H  0.85992379  0.44756026  0.86951911     0.12100
H853        H  0.80887017  0.44652728  0.82210656     0.12100
H854        H  0.82468699  0.04939782  0.78392542     0.12100
C855        C  0.96881434  0.14984147  0.64483143    -0.14100
C856        C  0.99805544  0.13061585  0.64092924     0.08100
C857        C  0.52614242  0.13953772  0.66777394    -0.14100
C858        C  0.52534111  0.16774523  0.69683924    -0.14100
C859        C  0.99651257  0.18756099  0.69935167     0.08100
C860        C  0.96816225  0.17828750  0.67350480    -0.14100
H861        H  0.94678002  0.14350969  0.62457977     0.12100
H862        H  0.54893806  0.12506416  0.66580809     0.12100
H863        H  0.54750263  0.17465793  0.71641497     0.12100
H864        H  0.94569188  0.19331289  0.67515220     0.12100
C865        C  0.53579191  0.14958505  0.85380183    -0.14100
C866        C  0.50714970  0.12971508  0.85986164     0.08100
C867        C  0.97765046  0.13850702  0.83617503    -0.14100
C868        C  0.97661455  0.16696052  0.80777774    -0.14100
C869        C  0.00491601  0.18735663  0.80311668     0.08100
C870        C  0.53456323  0.17837475  0.82604352    -0.14100
H871        H  0.55884529  0.14358928  0.87173119     0.12100
H872        H  0.95523337  0.12362170  0.84015333     0.12100
H873        H  0.95349286  0.17358845  0.79040350     0.12100
H874        H  0.55663514  0.19384928  0.82275162     0.12100
C875        C  0.96319196  0.34813384  0.64739319    -0.14100
C876        C  0.99103466  0.36943152  0.64441166     0.08100
C877        C  0.51973165  0.36188899  0.67071404    -0.14100
C878        C  0.52078953  0.33326706  0.69879844    -0.14100
C879        C  0.99333855  0.31145985  0.70050847     0.08100
C880        C  0.96448786  0.31920110  0.67481185    -0.14100
H881        H  0.94082507  0.35313351  0.62726884     0.12100
H882        H  0.54151721  0.37789886  0.66902583     0.12100
H883        H  0.54333163  0.32763452  0.71823232     0.12100
H884        H  0.94305712  0.30267023  0.67575092     0.12100
C885        C  0.97253091  0.35970069  0.83519355    -0.14100
C886        C  0.50018484  0.36778917  0.86339404     0.08100
C887        C  0.52899767  0.34785474  0.86076244    -0.14100
C888        C  0.52963732  0.31954502  0.83188112    -0.14100
C889        C  0.00172791  0.31109784  0.80455694     0.08100
C890        C  0.97333574  0.33161074  0.80589832    -0.14100
H891        H  0.95009212  0.37476602  0.83624112     0.12100
H892        H  0.55066585  0.35353777  0.88213233     0.12100
H893        H  0.55176564  0.30397924  0.83119513     0.12100
H894        H  0.95148135  0.32533347  0.78524101     0.12100
C895        C  0.49844942  0.89569023  0.39736511     0.41800
N896        N  0.51232554  0.92823248  0.45414670     0.00600
C897        C  0.90903089  0.53476372  0.07982193    -0.07200
H898        H  0.91064761  0.55694997  0.40118980     0.06100
C899        C  0.53576069  0.58632870  0.41715198    -0.07600
Co900      Co  0.95294555  0.95925029  0.50036448     0.74200
N901        N  0.93327435  0.51951692  0.44521002    -0.26800
Co902      Co  0.95920595  0.54552436  0.99733684     0.74100
C903        C  0.50718163  0.60127986  0.39303287     0.41900
N904        N  0.57093815  0.50981558  0.45460833     0.00300
N905        N  0.98950526  0.56850908  0.44732283     0.00400
N906        N  0.90599537  0.97831250  0.08127128    -0.47600
H907        H  0.94249601  0.90733451  0.40762268     0.06100
N908        N  0.93079641  0.98666165  0.44648938     0.00600
N909        N  0.98597672  0.57028484  0.04987243     0.00400
C910        C  0.99978654  0.60266654  0.10693735     0.42000
N911        N  0.56867536  0.97692974  0.45610022    -0.26200
C912        C  0.96260682  0.91279411  0.08721154    -0.07100
N913        N  0.52463600  0.90716249  0.42260929    -0.47300
N914        N  0.97363432  0.59126619  0.08152770    -0.47500
C915        C  0.99114821  0.89799617  0.11153728     0.41800
N916        N  0.92746187  0.98881605  0.04908486     0.00600
N917        N  0.56535668  0.97892087  0.05820505    -0.26200
N918        N  0.97952322  0.93078683  0.45177396    -0.26700
N919        N  0.56786987  0.51177327  0.05719550     0.00300
H920        H  0.58861392  0.94112335  0.10085344     0.06200
H921        H  0.55575294  0.59094982  0.09674017     0.06200
N922        N  0.92961749  0.52169414  0.04742850    -0.26800
N923        N  0.52233707  0.56650103  0.45010794    -0.26400
N924        N  0.50889551  0.93029567  0.05674715     0.00600
C925        C  0.89982966  0.50100514  0.38828769     0.42000
C926        C  0.58924396  0.96387883  0.42363930    -0.07600
N927        N  0.51878631  0.56768052  0.05234292    -0.26400
H928        H  0.56217339  0.59082955  0.41232879     0.06200
N929        N  0.91073425  0.97464847  0.41351354    -0.47600
H930        H  0.59339570  0.93750508  0.41777251     0.06200
C931        C  0.59972270  0.99693981  0.11422111     0.41900
C932        C  0.96842632  0.91125604  0.41672501    -0.07100
Co933      Co  0.53916968  0.95307897  0.50640125     0.73800
N934        N  0.59251844  0.52031543  0.42254940    -0.47300
C935        C  0.89348391  0.00590443  0.10236554     0.42100
N936        N  0.51895033  0.90986048  0.09044092    -0.47300
Co937      Co  0.54548726  0.53935606  0.00355636     0.73900
C938        C  0.52982571  0.58709803  0.08755427    -0.07700
C939        C  0.91473896  0.53091286  0.40938524    -0.07200
N940        N  0.97606352  0.93234029  0.05397922    -0.26700
N941        N  0.97941994  0.58918889  0.41395946    -0.47500
H942        H  0.90485291  0.56114678  0.08570047     0.06100
C943        C  0.58440129  0.96723034  0.09326545    -0.07600
Cl944      Cl  0.49920746  0.49930814  0.00191610    -0.50600
C945        C  0.60498739  0.49274650  0.40128849     0.41900
H946        H  0.93619029  0.90839131  0.09216742     0.06100
N947        N  0.58849746  0.52351818  0.08968746    -0.47300
C948        C  0.99532296  0.77994303  0.22766349     0.01600
C949        C  0.00149949  0.77987251  0.27659304     0.01500
C950        C  0.00551936  0.74933821  0.30011264    -0.19000
C951        C  0.00297770  0.71882458  0.27598006     0.01600
C952        C  0.99672182  0.71885980  0.22712014     0.01500
C953        C  0.99271941  0.74937987  0.20355497    -0.18500
H954        H  0.98866492  0.74936446  0.16583764     0.03600
H955        H  0.00955884  0.74928765  0.33784023     0.03600
C956        C  0.77905840  0.00231449  0.22549764     0.01600
C957        C  0.78073397  0.99789927  0.27464178     0.01500
C958        C  0.75106232  0.99448328  0.30057937    -0.19000
C959        C  0.71979537  0.99569558  0.27836456     0.01600
C960        C  0.71818340  0.99999567  0.22919598     0.01500
C961        C  0.74781808  0.00350015  0.20331186    -0.19000
H962        H  0.74658064  0.00635366  0.16542122     0.03600
H963        H  0.75228955  0.99166320  0.33847197     0.03600
C964        C  0.64613348  0.02808994  0.15347205    -0.14100
C965        C  0.62817135  0.99819700  0.14738798     0.08100
C966        C  0.63889521  0.96934382  0.17106925    -0.14100
C967        C  0.66759020  0.97020620  0.19914786    -0.14100
C968        C  0.68606725  0.99983667  0.20364665     0.08100
C969        C  0.67500009  0.02881339  0.18103683    -0.14100
H970        H  0.63847513  0.05072493  0.13571694     0.12100
H971        H  0.62550676  0.94599005  0.16732101     0.12100
H972        H  0.67594834  0.94757507  0.21624160     0.12100
H973        H  0.68905536  0.05185776  0.18416448     0.12100
C974        C  0.65047285  0.96337670  0.35646110    -0.14100
C975        C  0.63313056  0.49295895  0.36745170     0.08100
C976        C  0.64382408  0.52315948  0.34731925    -0.14100
C977        C  0.67156727  0.52385481  0.31740951    -0.14100
C978        C  0.68927191  0.99444030  0.30756035     0.08100
C979        C  0.67850090  0.96418855  0.32704331    -0.14100
H980        H  0.64296924  0.93973176  0.37142961     0.12100
H981        H  0.63091709  0.54632441  0.35506017     0.12100
H982        H  0.67965109  0.54741688  0.30264040     0.12100
H983        H  0.69196420  0.94127450  0.31970950     0.12100
C984        C  0.85656461  0.97596409  0.15923523    -0.14100
C985        C  0.86546671  0.00568517  0.13624096     0.08100
C986        C  0.84644795  0.03466688  0.14433554    -0.14100
C987        C  0.81847237  0.03364818  0.17376628    -0.14100
C988        C  0.80950268  0.00385946  0.19622572     0.08100
C989        C  0.82891739  0.97512239  0.18926528    -0.14100
H990        H  0.87083390  0.95329740  0.15368662     0.12100
H991        H  0.85255625  0.05788113  0.12697587     0.12100
H992        H  0.80365924  0.05602946  0.17883638     0.12100
H993        H  0.82221055  0.95191008  0.20631850     0.12100
C994        C  0.86150480  0.52784770  0.32966207    -0.14100
C995        C  0.87152689  0.49944023  0.35491307     0.08100
C996        C  0.85275567  0.96988445  0.35063831    -0.14100
C997        C  0.82356468  0.96924868  0.32375317    -0.14100
C998        C  0.81300280  0.99792567  0.29993450     0.08100
C999        C  0.83250545  0.02704001  0.30220233    -0.14100
H1000       H  0.87561548  0.55087482  0.33189533     0.12100
H1001       H  0.85992512  0.94755690  0.36952169     0.12100
H1002       H  0.80887156  0.94652882  0.32210671     0.12100
H1003       H  0.82468710  0.54939804  0.28392552     0.12100
C1004       C  0.96881399  0.64984140  0.14483110    -0.14100
C1005       C  0.99805577  0.63061585  0.14092944     0.08100
C1006       C  0.52614242  0.63953771  0.16777390    -0.14100
C1007       C  0.52534120  0.66774516  0.19683917    -0.14100
C1008       C  0.99651229  0.68756109  0.19935171     0.08100
C1009       C  0.96816282  0.67828721  0.17350483    -0.14100
H1010       H  0.94678285  0.64351012  0.12458198     0.12100
H1011       H  0.54893850  0.62506377  0.16580802     0.12100
H1012       H  0.54750301  0.67465799  0.21641526     0.12100
H1013       H  0.94568878  0.69331446  0.17515239     0.12100
C1014       C  0.53579204  0.64958506  0.35380189    -0.14100
C1015       C  0.50714955  0.62971520  0.35986162     0.08100
C1016       C  0.97765034  0.63850692  0.33617507    -0.14100
C1017       C  0.97661474  0.66696051  0.30777792    -0.14100
C1018       C  0.00491604  0.68735657  0.30311672     0.08100
C1019       C  0.53456333  0.67837497  0.32604349    -0.14100
H1020       H  0.55884442  0.64358975  0.37173056     0.12100
H1021       H  0.95523405  0.62362216  0.34015334     0.12100
H1022       H  0.95349248  0.67358865  0.29040330     0.12100
H1023       H  0.55663470  0.69384901  0.32275166     0.12100
C1024       C  0.96319194  0.84813380  0.14739319    -0.14100
C1025       C  0.99103462  0.86943149  0.14441165     0.08100
C1026       C  0.51973161  0.86188893  0.17071417    -0.14100
C1027       C  0.52078968  0.83326720  0.19879843    -0.14100
C1028       C  0.99333854  0.81145984  0.20050841     0.08100
C1029       C  0.96448772  0.81920104  0.17481182    -0.14100
H1030       H  0.94082487  0.85313345  0.12726844     0.12100
H1031       H  0.54151857  0.87790024  0.16902618     0.12100
H1032       H  0.54333230  0.82763405  0.21823264     0.12100
H1033       H  0.94305729  0.80267027  0.17575069     0.12100
C1034       C  0.97253165  0.85970017  0.33519354    -0.14100
C1035       C  0.50018453  0.86778913  0.36339390     0.08100
C1036       C  0.52899788  0.84785484  0.36076278    -0.14100
C1037       C  0.52963687  0.81954508  0.33188091    -0.14100
C1038       C  0.00172816  0.81109789  0.30455704     0.08100
C1039       C  0.97333556  0.83161097  0.30589852    -0.14100
H1040       H  0.95008733  0.87476935  0.33624097     0.12100
H1041       H  0.55066307  0.85353711  0.38212988     0.12100
H1042       H  0.55176622  0.80397890  0.33119504     0.12100
H1043       H  0.95148170  0.82533327  0.28524126     0.12100
C1044       C  0.49844941  0.89569023  0.89736515     0.41800
N1045       N  0.51232548  0.92823247  0.95414671     0.00600
C1046       C  0.90903085  0.53476371  0.57982193    -0.07200
H1047       H  0.91064748  0.55695104  0.90118962     0.06100
C1048       C  0.53576014  0.58632855  0.91715232    -0.07600
Co1049     Co  0.95294553  0.95925031  0.00036445     0.74200
N1050       N  0.93327440  0.51951701  0.94521000    -0.26800
Co1051     Co  0.95920593  0.54552433  0.49733681     0.74100
C1052       C  0.50718195  0.60127986  0.89303289     0.41900
N1053       N  0.57093817  0.50981544  0.95460837     0.00300
N1054       N  0.98950528  0.56850916  0.94732289     0.00400
N1055       N  0.90599529  0.97831251  0.58127135    -0.47600
H1056       H  0.94249652  0.90733452  0.90762282     0.06100
N1057       N  0.93079639  0.98666165  0.94648934     0.00600
N1058       N  0.98597671  0.57028484  0.54987242     0.00400
C1059       C  0.99978656  0.60266653  0.60693735     0.42000
N1060       N  0.56867537  0.97692943  0.95610018    -0.26200
C1061       C  0.96260688  0.91279413  0.58721155    -0.07100
N1062       N  0.52463594  0.90716248  0.92260930    -0.47300
N1063       N  0.97363430  0.59126614  0.58152770    -0.47500
C1064       C  0.99114823  0.89799622  0.61153726     0.41800
N1065       N  0.92746196  0.98881621  0.54908480     0.00600
N1066       N  0.56535680  0.97892060  0.55820523    -0.26200
N1067       N  0.97952334  0.93078682  0.95177393    -0.26700
N1068       N  0.56786989  0.51177326  0.55719540     0.00300
H1069       H  0.58861439  0.94111986  0.60085449     0.06200
H1070       H  0.55575358  0.59095010  0.59674034     0.06200
N1071       N  0.92961744  0.52169412  0.54742850    -0.26800
N1072       N  0.52233744  0.56650113  0.95010794    -0.26400
N1073       N  0.50889559  0.93029561  0.55674726     0.00600
C1074       C  0.89982957  0.50100527  0.88828769     0.42000
C1075       C  0.58924373  0.96387929  0.92363959    -0.07600
N1076       N  0.51878641  0.56768057  0.55234291    -0.26400
H1077       H  0.56217758  0.59083015  0.91232840     0.06200
N1078       N  0.91073423  0.97464850  0.91351356    -0.47600
H1079       H  0.59339579  0.93750138  0.91777188     0.06200
C1080       C  0.59972284  0.99693959  0.61422103     0.41900
C1081       C  0.96842626  0.91125596  0.91672490    -0.07100
Co1082     Co  0.53916965  0.95307893  0.00640121     0.73800
N1083       N  0.59251851  0.52031532  0.92254948    -0.47300
C1084       C  0.89348394  0.00590449  0.60236548     0.42100
N1085       N  0.51895029  0.90986042  0.59044100    -0.47300
Co1086     Co  0.54548726  0.53935609  0.50355633     0.73900
C1087       C  0.52982565  0.58709805  0.58755428    -0.07700
C1088       C  0.91473908  0.53091266  0.90938536    -0.07200
N1089       N  0.97606349  0.93234032  0.55397918    -0.26700
N1090       N  0.97942001  0.58918882  0.91395958    -0.47500
H1091       H  0.90485282  0.56114677  0.58570049     0.06100
C1092       C  0.58440119  0.96723082  0.59326520    -0.07600
Cl1093     Cl  0.49920748  0.49930815  0.50191606    -0.50600
C1094       C  0.60498749  0.49274630  0.90128851     0.41900
H1095       H  0.93619036  0.90839132  0.59216749     0.06100
N1096       N  0.58849745  0.52351815  0.58968743    -0.47300
C1097       C  0.99532304  0.77994307  0.72766347     0.01600
C1098       C  0.00149950  0.77987246  0.77659296     0.01500
C1099       C  0.00551934  0.74933822  0.80011265    -0.19000
C1100       C  0.00297772  0.71882459  0.77598009     0.01600
C1101       C  0.99672186  0.71885982  0.72712019     0.01500
C1102       C  0.99271943  0.74937989  0.70355480    -0.18500
H1103       H  0.98866556  0.74936450  0.66583842     0.03600
H1104       H  0.00955879  0.74928767  0.83784021     0.03600
C1105       C  0.77905849  0.00231441  0.72549749     0.01600
C1106       C  0.78073407  0.99789929  0.77464131     0.01500
C1107       C  0.75106238  0.99448317  0.80058019    -0.19000
C1108       C  0.71979532  0.99569567  0.77836418     0.01600
C1109       C  0.71818337  0.99999567  0.72919592     0.01500
C1110       C  0.74781810  0.00350021  0.70331158    -0.19000
H1111       H  0.74658066  0.00635364  0.66542152     0.03600
H1112       H  0.75228945  0.99166348  0.83846589     0.03600
C1113       C  0.64613353  0.02809002  0.65347196    -0.14100
C1114       C  0.62817133  0.99819661  0.64738813     0.08100
C1115       C  0.63889558  0.96934406  0.67106973    -0.14100
C1116       C  0.66759002  0.97020622  0.69914792    -0.14100
C1117       C  0.68606726  0.99983658  0.70364678     0.08100
C1118       C  0.67500001  0.02881304  0.68103679    -0.14100
H1119       H  0.63847552  0.05072382  0.63571800     0.12100
H1120       H  0.62550494  0.94598666  0.66732067     0.12100
H1121       H  0.67594913  0.94757362  0.71624384     0.12100
H1122       H  0.68905597  0.05185868  0.68416448     0.12100
C1123       C  0.65047289  0.96337667  0.85646137    -0.14100
C1124       C  0.63313063  0.49295895  0.86745161     0.08100
C1125       C  0.64382454  0.52315971  0.84731938    -0.14100
C1126       C  0.67156737  0.52385449  0.81741015    -0.14100
C1127       C  0.68927182  0.99444021  0.80756040     0.08100
C1128       C  0.67850103  0.96418862  0.82704358    -0.14100
H1129       H  0.64296931  0.93973233  0.87142915     0.12100
H1130       H  0.63091741  0.54632464  0.85506098     0.12100
H1131       H  0.67965276  0.54742044  0.80263889     0.12100
H1132       H  0.69196454  0.94127462  0.81971038     0.12100
C1133       C  0.85656467  0.97596439  0.65923524    -0.14100
C1134       C  0.86546676  0.00568524  0.63624092     0.08100
C1135       C  0.84644793  0.03466696  0.64433546    -0.14100
C1136       C  0.81847241  0.03364811  0.67376618    -0.14100
C1137       C  0.80950275  0.00385953  0.69622559     0.08100
C1138       C  0.82891752  0.97512228  0.68926537    -0.14100
H1139       H  0.87083447  0.95329691  0.65368666     0.12100
H1140       H  0.85255641  0.05788129  0.62697562     0.12100
H1141       H  0.80365880  0.05602993  0.67883672     0.12100
H1142       H  0.82221123  0.95191101  0.70631806     0.12100
C1143       C  0.86150466  0.52784822  0.82966181    -0.14100
C1144       C  0.87152671  0.49944065  0.85491282     0.08100
C1145       C  0.85275560  0.96988448  0.85063832    -0.14100
C1146       C  0.82356463  0.96924874  0.82375318    -0.14100
C1147       C  0.81300284  0.99792557  0.79993457     0.08100
C1148       C  0.83250552  0.02704034  0.80220223    -0.14100
H1149       H  0.87561540  0.55087470  0.83189541     0.12100
H1150       H  0.85992505  0.94755691  0.86952173     0.12100
H1151       H  0.80887137  0.94652861  0.82210635     0.12100
H1152       H  0.82468563  0.54940222  0.78392211     0.12100
C1153       C  0.96881396  0.64984139  0.64483112    -0.14100
C1154       C  0.99805574  0.63061583  0.64092944     0.08100
C1155       C  0.52614244  0.63953771  0.66777396    -0.14100
C1156       C  0.52534117  0.66774517  0.69683922    -0.14100
C1157       C  0.99651228  0.68756109  0.69935174     0.08100
C1158       C  0.96816281  0.67828721  0.67350486    -0.14100
H1159       H  0.94678282  0.64351011  0.62458200     0.12100
H1160       H  0.54893848  0.62506383  0.66580811     0.12100
H1161       H  0.54750299  0.67465801  0.71641533     0.12100
H1162       H  0.94568876  0.69331448  0.67515242     0.12100
C1163       C  0.53579186  0.64958504  0.85380187    -0.14100
C1164       C  0.50714936  0.62971505  0.85986166     0.08100
C1165       C  0.97765029  0.63850703  0.83617503    -0.14100
C1166       C  0.97661486  0.66696054  0.80777808    -0.14100
C1167       C  0.00491598  0.68735660  0.80311675     0.08100
C1168       C  0.53456328  0.67837487  0.82604361    -0.14100
H1169       H  0.55884495  0.64358935  0.87173101     0.12100
H1170       H  0.95523388  0.62362209  0.84015342     0.12100
H1171       H  0.95349146  0.67358923  0.79040288     0.12100
H1172       H  0.55663477  0.69384909  0.82275169     0.12100
C1173       C  0.96319163  0.84813403  0.64739297    -0.14100
C1174       C  0.99103503  0.86943164  0.64441172     0.08100
C1175       C  0.51973172  0.86188889  0.67071443    -0.14100
C1176       C  0.52078918  0.83326713  0.69879835    -0.14100
C1177       C  0.99333855  0.81145991  0.70050827     0.08100
C1178       C  0.96448790  0.81920111  0.67481206    -0.14100
H1179       H  0.94082770  0.85313300  0.62727111     0.12100
H1180       H  0.54151710  0.87789911  0.66902649     0.12100
H1181       H  0.54333394  0.82763377  0.71823496     0.12100
H1182       H  0.94305696  0.80267045  0.67575093     0.12100
C1183       C  0.97253070  0.85970058  0.83519344    -0.14100
C1184       C  0.50018420  0.86778932  0.86339380     0.08100
C1185       C  0.52899787  0.84785467  0.86076272    -0.14100
C1186       C  0.52963646  0.81954534  0.83188099    -0.14100
C1187       C  0.00172799  0.81109777  0.80455678     0.08100
C1188       C  0.97333605  0.83161077  0.80589871    -0.14100
H1189       H  0.95009229  0.87476595  0.83624089     0.12100
H1190       H  0.55066293  0.85353716  0.88213012     0.12100
H1191       H  0.55176869  0.80397728  0.83119465     0.12100
H1192       H  0.95147912  0.82533274  0.78523929     0.12100
loop_ 
_geom_bond_atom_site_label_1 
_geom_bond_atom_site_label_2 
_geom_bond_distance 
_geom_bond_site_symmetry_2 
_ccdc_geom_bond_type 
C1           N19   1.350   1_655  A
C1          C141   1.475   1_655  S
C1          C634   1.461       .  S
N2           N19   1.324       .  A
N2          N620   1.319   1_455  A
N2          Co39   2.083       .  S
C3           N28   1.341       .  A
C3          C339   1.462       .  S
C3           H48   1.081       .  S
H4           C45   1.081       .  S
C5           N29   1.342       .  A
C5            C9   1.464       .  S
C5           H34   1.082       .  S
Co6          N24   2.080       .  S
Co6          N14   2.086       .  S
Co6         N195   2.087       .  S
Co6         N171   2.085       .  S
Co6       Cl1093   2.449       .  S
N7           C45   1.342       .  A
N7          N312   1.319   1_545  A
N7         Co157   2.085       .  S
Co8          N28   2.085   1_556  S
Co8          N15   2.086   1_556  S
Co8         N156   2.085       .  S
Co8         N160   2.085       .  S
Co8        Cl646   2.451   1_546  S
C9          N643   1.351   1_455  A
C9          C121   1.481       .  S
N10          N40   1.325       .  A
N10         N315   1.320   1_545  A
N10        Co192   2.088       .  S
N11          N47   1.324       .  A
N11         N625   1.320       .  A
N11        Co157   2.085       .  S
N12          C41   1.351       .  A
N12          N22   1.325       .  A
H13          C38   1.081       .  S
N14          N35   1.324       .  A
N14         N305   1.319       .  A
N15          N20   1.324       .  A
N15         N629   1.320       .  A
C16          N20   1.351       .  A
C16         C111   1.477       .  S
C16         C640   1.462       .  S
N17          C32   1.341       .  A
N17         N308   1.320       .  A
N17         Co39   2.088       .  S
C18          N46   1.341       .  A
C18          C21   1.463       .  S
C18          H52   1.082       .  S
C21         N638   1.351       .  A
C21         C131   1.479       .  S
N22         N326   1.320       .  A
N22        Co155   2.085       .  S
N23          C49   1.341       .  A
N23         N323   1.319       .  A
N23        Co188   2.080       .  S
N24          C38   1.340       .  A
N24         N598   1.319       .  A
N25          N53   1.324       .  A
N25         N321   1.319   1_545  A
N25         Co43   2.089       .  S
H26          C49   1.081       .  S
H27          C44   1.081       .  S
N28         N320   1.320   1_545  A
N29         N607   1.320   1_455  A
N29        Co192   2.089       .  S
N30          N42   1.325       .  A
N30         N642   1.320   1_455  A
N30        Co188   2.087       .  S
C31         N333   1.351   1_545  A
C31          C45   1.464       .  S
C31         C101   1.479   1_545  S
C32         C349   1.463       .  S
C32          H36   1.081       .  S
N33          C44   1.340       .  A
N33         N611   1.320   1_455  A
N33         Co43   2.083       .  S
N35         C329   1.351       .  A
C37         N351   1.351       .  A
C37          C49   1.463       .  S
C37          C71   1.480       .  S
C38         C597   1.461       .  S
Co39        N172   2.080       .  S
Co39        N179   2.087       .  S
Co39       Cl497   2.451   1_455  S
N40          C51   1.352   1_545  A
C41          C91   1.478       .  S
C41         C301   1.462       .  S
N42         C617   1.351   1_455  A
Co43        N159   2.088   1_554  S
Co43        N178   2.089   1_554  S
Co43        Cl50   2.450   1_445  S
C44         C612   1.462   1_455  S
N46         N626   1.320       .  A
N46        Co155   2.087       .  S
N47         C605   1.351       .  A
Cl50      Co1049   2.449       .  S
Cl50       Co604   2.451   1_564  S
Cl50       Co486   2.451   1_655  S
C51          C81   1.481       .  S
C51         C330   1.463       .  S
N53         C335   1.351   1_545  A
C54         C134   1.483       .  S
C54          C55   1.413       .  A
C54          C59   1.404       .  A
C55         C144   1.479       .  S
C55          C56   1.405       .  A
C56          H61   1.085       .  S
C56          C57   1.402       .  A
C57         C124   1.481       .  S
C57          C58   1.411       .  A
C58         C114   1.478       .  S
C58          C59   1.405       .  A
C59          H60   1.084       .  S
C62          C94   1.477       .  S
C62          C63   1.410       .  A
C62          C67   1.402       .  A
C63         C104   1.479       .  S
C63          C64   1.405       .  A
C64          H69   1.085       .  S
C64          C65   1.403       .  A
C65          C84   1.478       .  S
C65          C66   1.410       .  A
C66          C74   1.477       .  S
C66          C67   1.403       .  A
C67          H68   1.085       .  S
C70          H76   1.083       .  S
C70          C71   1.406       .  A
C70          C75   1.397       .  A
C71          C72   1.406       .  A
C72          H77   1.082       .  S
C72          C73   1.400       .  A
C73          H78   1.083       .  S
C73          C74   1.403       .  A
C74          C75   1.400       .  A
C75          H79   1.084       .  S
C80          H86   1.081       .  S
C80          C85   1.400       .  A
C80         C379   1.407       .  A
C81          C82   1.406   1_565  A
C81         C378   1.407       .  A
C82          H87   1.083       .  S
C82          C83   1.399       .  A
C83          H88   1.083       .  S
C83         C382   1.402   1_545  A
C84          C85   1.401       .  A
C84         C381   1.402       .  A
C85          H89   1.084       .  S
C90          H96   1.084       .  S
C90          C91   1.405       .  A
C90          C95   1.398       .  A
C91          C92   1.406       .  A
C92          H97   1.081       .  S
C92          C93   1.399       .  A
C93          H98   1.084       .  S
C93          C94   1.401       .  A
C94          C95   1.402       .  A
C95          H99   1.083       .  S
C100        H106   1.083       .  S
C100        C101   1.406   1_545  A
C100        C403   1.400       .  A
C101        C400   1.406       .  A
C102        H107   1.083       .  S
C102        C103   1.397       .  A
C102        C399   1.406       .  A
C103        H108   1.083       .  S
C103        C104   1.400       .  A
C104        C105   1.404       .  A
C105        H407   1.083       .  S
C105        C398   1.400       .  A
H109        C403   1.083       .  S
C110        H116   1.083       .  S
C110        C111   1.406       .  A
C110        C115   1.398       .  A
C111        C708   1.405       .  A
C112        H117   1.083       .  S
C112        C113   1.397       .  A
C112        C707   1.405   1_455  A
C113        H118   1.083       .  S
C113        C710   1.403   1_455  A
C114        C115   1.402       .  A
C114        C709   1.403       .  A
C115        H119   1.084       .  S
C120        H126   1.082       .  S
C120        C121   1.406       .  A
C120        C125   1.400       .  A
C121        C718   1.406   1_455  A
C122        H127   1.083       .  S
C122        C123   1.399       .  A
C122        C717   1.406       .  A
C123        H128   1.083       .  S
C123        C124   1.403       .  A
C124        C721   1.402       .  A
C125        H129   1.083       .  S
C125        C720   1.402       .  A
C130        H136   1.082       .  S
C130        C131   1.406       .  A
C130        C135   1.399       .  A
C131        C728   1.405       .  A
C132        H137   1.083       .  S
C132        C133   1.399       .  A
C132        C727   1.405   1_455  A
C133        H138   1.083       .  S
C133        C730   1.404   1_455  A
C134        C135   1.403       .  A
C134        C729   1.404       .  A
C135        H139   1.084       .  S
C140        H146   1.083       .  S
C140        C145   1.397       .  A
C140        C737   1.404       .  A
C141        C142   1.405       .  A
C141        C736   1.404   1_455  A
C142        H147   1.083       .  S
C142        C143   1.397       .  A
C143        H148   1.084       .  S
C143        C740   1.402       .  A
C144        C145   1.403       .  A
C144        C739   1.402       .  A
C145        H149   1.083       .  S
C150        N168   1.350   1_655  A
C150        C783   1.461       .  S
C150        C290   1.475   1_655  S
N151        N168   1.324       .  A
N151        N769   1.319   1_455  A
N151       Co188   2.083   1_556  S
C152        N177   1.341       .  A
C152        C488   1.462       .  S
C152        H197   1.082       .  S
H153        C194   1.081       .  S
C154        N178   1.342       .  A
C154        C158   1.464       .  S
C154        H183   1.082       .  S
Co155       N173   2.080   1_554  S
Co155       N163   2.086   1_554  S
Co155      Cl944   2.449       .  S
N156        C194   1.342       .  A
N156        N461   1.319   1_545  A
Co157       N177   2.085       .  S
Co157       N164   2.086       .  S
Co157      Cl795   2.451   1_545  S
C158        N792   1.351   1_455  A
C158        C270   1.481       .  S
N159        N464   1.320   1_545  A
N159        N189   1.325       .  A
N160        N774   1.320       .  A
N160        N196   1.324       .  A
N161        C190   1.351       .  A
N161        N171   1.325       .  A
H162        C187   1.081       .  S
N163        N454   1.319       .  A
N163        N184   1.324       .  A
N164        N778   1.320       .  A
N164        N169   1.324       .  A
C165        N169   1.351       .  A
C165        C789   1.462       .  S
C165        C260   1.477       .  S
N166        C181   1.341       .  A
N166        N457   1.320       .  A
N166       Co188   2.088   1_556  S
C167        N195   1.341       .  A
C167        C170   1.463       .  S
C167        H201   1.082       .  S
C170        N787   1.351       .  A
C170        C280   1.479       .  S
N171        N475   1.320       .  A
N172        C198   1.341       .  A
N172        N472   1.319       .  A
N173        C187   1.340       .  A
N173        N747   1.319       .  A
N174        N470   1.319   1_545  A
N174        N202   1.324       .  A
N174       Co192   2.089       .  S
H175        C198   1.081       .  S
H176        C193   1.082       .  S
N177        N469   1.320   1_545  A
N178        N756   1.320   1_455  A
N179        N191   1.325       .  A
N179        N791   1.320   1_455  A
C180        N482   1.351   1_545  A
C180        C194   1.464       .  S
C180        C250   1.479   1_545  S
C181        C498   1.463       .  S
C181        H185   1.081       .  S
N182        C193   1.340       .  A
N182        N760   1.320   1_455  A
N182       Co192   2.083       .  S
N184        C478   1.351       .  A
C186        N500   1.351       .  A
C186        C198   1.463       .  S
C186        C220   1.480       .  S
C187        C746   1.461       .  S
Co188      Cl348   2.451   1_455  S
N189        C200   1.352   1_545  A
C190        C450   1.462       .  S
C190        C240   1.478       .  S
N191        C766   1.351   1_455  A
Co192      Cl199   2.450   1_445  S
C193        C761   1.462   1_455  S
N195        N775   1.320       .  A
N196        C754   1.351       .  A
Cl199      Co900   2.449       .  S
Cl199      Co753   2.451   1_565  S
Cl199      Co337   2.451   1_655  S
C200        C479   1.463       .  S
C200        C230   1.481       .  S
N202        C484   1.351   1_545  A
C203        C283   1.483       .  S
C203        C204   1.413       .  A
C203        C208   1.404       .  A
C204        C293   1.479       .  S
C204        C205   1.405       .  A
C205        H210   1.085       .  S
C205        C206   1.402       .  A
C206        C273   1.481       .  S
C206        C207   1.411       .  A
C207        C263   1.478       .  S
C207        C208   1.405       .  A
C208        H209   1.084       .  S
C211        C243   1.477       .  S
C211        C212   1.410       .  A
C211        C216   1.402       .  A
C212        C253   1.479       .  S
C212        C213   1.405       .  A
C213        H218   1.084       .  S
C213        C214   1.403       .  A
C214        C233   1.478       .  S
C214        C215   1.410       .  A
C215        C223   1.477       .  S
C215        C216   1.403       .  A
C216        H217   1.085       .  S
C219        H225   1.083       .  S
C219        C220   1.406       .  A
C219        C224   1.397       .  A
C220        C221   1.406       .  A
C221        H226   1.082       .  S
C221        C222   1.400       .  A
C222        H227   1.083       .  S
C222        C223   1.403       .  A
C223        C224   1.400       .  A
C224        H228   1.084       .  S
C229        H235   1.081       .  S
C229        C528   1.407       .  A
C229        C234   1.400       .  A
C230        C527   1.407       .  A
C230        C231   1.406   1_565  A
C231        H236   1.083       .  S
C231        C232   1.399       .  A
C232        H237   1.083       .  S
C232        C531   1.402   1_545  A
C233        C530   1.402       .  A
C233        C234   1.401       .  A
C234        H238   1.084       .  S
C239        H245   1.084       .  S
C239        C240   1.405       .  A
C239        C244   1.398       .  A
C240        C241   1.406       .  A
C241        H246   1.082       .  S
C241        C242   1.399       .  A
C242        H247   1.084       .  S
C242        C243   1.401       .  A
C243        C244   1.402       .  A
C244        H248   1.083       .  S
C249        H255   1.082       .  S
C249        C250   1.406   1_545  A
C249        C552   1.400       .  A
C250        C549   1.406       .  A
C251        H256   1.083       .  S
C251        C548   1.406       .  A
C251        C252   1.397       .  A
C252        H257   1.083       .  S
C252        C253   1.400       .  A
C253        C254   1.404       .  A
C254        H556   1.083       .  S
C254        C547   1.400       .  A
H258        C552   1.083       .  S
C259        H265   1.083       .  S
C259        C260   1.406       .  A
C259        C264   1.398       .  A
C260        C857   1.405       .  A
C261        H266   1.083       .  S
C261        C856   1.405   1_455  A
C261        C262   1.397       .  A
C262        H267   1.083       .  S
C262        C859   1.403   1_455  A
C263        C858   1.403       .  A
C263        C264   1.402       .  A
C264        H268   1.084       .  S
C269        H275   1.082       .  S
C269        C270   1.406       .  A
C269        C274   1.400       .  A
C270        C867   1.406   1_455  A
C271        H276   1.083       .  S
C271        C866   1.406       .  A
C271        C272   1.399       .  A
C272        H277   1.083       .  S
C272        C273   1.403       .  A
C273        C870   1.402       .  A
C274        H278   1.083       .  S
C274        C869   1.402       .  A
C279        H285   1.082       .  S
C279        C280   1.406       .  A
C279        C284   1.399       .  A
C280        C877   1.405       .  A
C281        H286   1.083       .  S
C281        C876   1.405   1_455  A
C281        C282   1.399       .  A
C282        H287   1.083       .  S
C282        C879   1.404   1_455  A
C283        C878   1.404       .  A
C283        C284   1.403       .  A
C284        H288   1.084       .  S
C289        H295   1.083       .  S
C289        C886   1.404       .  A
C289        C294   1.397       .  A
C290        C885   1.404   1_455  A
C290        C291   1.405       .  A
C291        H296   1.083       .  S
C291        C292   1.397       .  A
C292        H297   1.084       .  S
C292        C889   1.402       .  A
C293        C888   1.402       .  A
C293        C294   1.403       .  A
C294        H298   1.083       .  S
C299        N317   1.350   1_655  A
C299        C932   1.461       .  S
C299        C439   1.475   1_655  S
N300        N317   1.324       .  A
N300        N918   1.319   1_455  A
N300       Co337   2.083       .  S
C301        N326   1.341       .  A
C301        H346   1.082       .  S
H302        C343   1.081       .  S
C303        N327   1.342       .  A
C303        C307   1.464       .  S
C303        H332   1.082       .  S
Co304       N322   2.080       .  S
Co304       N312   2.086       .  S
Co304       N493   2.087       .  S
Co304       N469   2.085       .  S
Co304      Cl795   2.449       .  S
N305        C343   1.342       .  A
N305       Co455   2.085       .  S
Co306       N454   2.085       .  S
Co306       N458   2.085       .  S
Co306       N326   2.085   1_556  S
Co306       N313   2.086   1_556  S
Co306      Cl944   2.451   1_556  S
C307        N941   1.351   1_455  A
C307        C419   1.481       .  S
N308        N338   1.325       .  A
N308       Co490   2.088       .  S
N309        N923   1.320       .  A
N309        N345   1.324       .  A
N309       Co455   2.085       .  S
N310        C339   1.351   1_565  A
N310        N320   1.325       .  A
H311        C336   1.081       .  S
N312        N333   1.324       .  A
N313        N927   1.320       .  A
N313        N318   1.324       .  A
C314        N318   1.351       .  A
C314        C938   1.462       .  S
C314        C409   1.477       .  S
N315        C330   1.341       .  A
N315       Co337   2.088       .  S
C316        N344   1.341       .  A
C316        C319   1.463       .  S
C316        H350   1.082       .  S
C319        N936   1.351       .  A
C319        C429   1.479       .  S
N320       Co453   2.085       .  S
N321        C347   1.341       .  A
N321       Co486   2.080       .  S
N322        C336   1.340       .  A
N322        N896   1.319       .  A
N323        N351   1.324       .  A
N323       Co341   2.088       .  S
H324        C347   1.081       .  S
H325        C342   1.081       .  S
N327        N905   1.320   1_455  A
N327       Co490   2.089       .  S
N328        N340   1.325       .  A
N328        N940   1.320   1_455  A
N328       Co486   2.087       .  S
C329        C343   1.464       .  S
C329        C399   1.479       .  S
C330        H334   1.081       .  S
N331        C342   1.340       .  A
N331        N909   1.320   1_455  A
N331       Co341   2.083       .  S
C335        C347   1.462       .  S
C335        C369   1.480       .  S
C336        C895   1.461       .  S
Co337       N470   2.080       .  S
Co337       N477   2.087       .  S
N338        C349   1.352       .  A
C339        C389   1.478       .  S
N340        C915   1.351   1_455  A
Co341       N457   2.088   1_554  S
Co341       N476   2.089   1_554  S
Co341      Cl348   2.450   1_455  S
C342        C910   1.462   1_455  S
N344        N924   1.320       .  A
N344       Co453   2.087       .  S
N345        C903   1.351       .  A
Cl348      Co751   2.449       .  S
Cl348      Co902   2.451   1_554  S
C349        C379   1.481       .  S
C352        C432   1.483       .  S
C352        C353   1.413       .  A
C352        C357   1.404       .  A
C353        C442   1.479       .  S
C353        C354   1.405       .  A
C354        H359   1.085       .  S
C354        C355   1.402       .  A
C355        C422   1.481       .  S
C355        C356   1.411       .  A
C356        C412   1.478       .  S
C356        C357   1.405       .  A
C357        H358   1.084       .  S
C360        C392   1.477       .  S
C360        C361   1.410   1_545  A
C360        C365   1.402       .  A
C361        C402   1.479       .  S
C361        C362   1.405       .  A
C362        H367   1.084       .  S
C362        C363   1.403       .  A
C363        C382   1.478       .  S
C363        C364   1.410       .  A
C364        C372   1.477       .  S
C364        C365   1.403   1_565  A
C365        H366   1.085       .  S
C368        H374   1.083       .  S
C368        C369   1.406   1_545  A
C368        C373   1.397       .  A
C369        C370   1.406       .  A
C370        H375   1.082       .  S
C370        C371   1.400       .  A
C371        H376   1.083       .  S
C371        C372   1.403       .  A
C372        C373   1.400   1_565  A
C373        H377   1.083       .  S
C378        H384   1.081       .  S
C378        C383   1.400       .  A
C379        C380   1.406       .  A
C380        H385   1.083       .  S
C380        C381   1.399       .  A
C381        H386   1.083       .  S
C382        C383   1.401       .  A
C383        H387   1.084       .  S
C388        H394   1.083       .  S
C388        C389   1.405   1_565  A
C388        C393   1.398       .  A
C389        C390   1.406       .  A
C390        H395   1.081       .  S
C390        C391   1.398       .  A
C391        H396   1.084       .  S
C391        C392   1.401       .  A
C392        C393   1.402   1_545  A
C393        H397   1.083       .  S
C398        H404   1.082       .  S
C398        C399   1.406       .  A
C400        H405   1.083       .  S
C400        C401   1.397       .  A
C401        H406   1.084       .  S
C401        C402   1.400       .  A
C402        C403   1.404   1_565  A
C408        H414   1.083       .  S
C408        C409   1.406       .  A
C408        C413   1.398       .  A
C409       C1006   1.405       .  A
C410        H415   1.083       .  S
C410       C1005   1.405   1_455  A
C410        C411   1.397       .  A
C411        H416   1.083       .  S
C411       C1008   1.403   1_455  A
C412       C1007   1.403       .  A
C412        C413   1.402       .  A
C413        H417   1.083       .  S
C418        H424   1.082       .  S
C418        C419   1.406       .  A
C418        C423   1.400       .  A
C419       C1016   1.406   1_455  A
C420        H425   1.083       .  S
C420       C1015   1.406       .  A
C420        C421   1.399       .  A
C421        H426   1.083       .  S
C421        C422   1.403       .  A
C422       C1019   1.402       .  A
C423        H427   1.083       .  S
C423       C1018   1.402       .  A
C428        H434   1.082       .  S
C428        C429   1.406       .  A
C428        C433   1.399       .  A
C429       C1026   1.405       .  A
C430        H435   1.083       .  S
C430       C1025   1.405   1_455  A
C430        C431   1.399       .  A
C431        H436   1.083       .  S
C431       C1028   1.404   1_455  A
C432       C1027   1.404       .  A
C432        C433   1.403       .  A
C433        H437   1.083       .  S
C438        H444   1.083       .  S
C438       C1035   1.404       .  A
C438        C443   1.397       .  A
C439       C1034   1.404   1_455  A
C439        C440   1.405       .  A
C440        H445   1.083       .  S
C440        C441   1.397       .  A
C441        H446   1.084       .  S
C441       C1038   1.402       .  A
C442       C1037   1.402       .  A
C442        C443   1.403       .  A
C443        H447   1.083       .  S
C448        N466   1.350   1_655  A
C448       C1081   1.461       .  S
C448        C588   1.475   1_655  S
N449        N466   1.324       .  A
N449       N1067   1.319   1_455  A
N449       Co486   2.083   1_556  S
C450        N475   1.341       .  A
C450        H495   1.081       .  S
H451        C492   1.081       .  S
C452        N476   1.342       .  A
C452        C456   1.464       .  S
C452        H481   1.082       .  S
Co453       N471   2.080   1_554  S
Co453       N461   2.086   1_554  S
Co453      Cl646   2.449       .  S
N454        C492   1.342       .  A
Co455       N475   2.085       .  S
Co455       N462   2.086       .  S
Co455     Cl1093   2.451       .  S
C456       N1090   1.351   1_455  A
C456        C568   1.481       .  S
N457        N487   1.325       .  A
N458       N1072   1.320       .  A
N458        N494   1.324       .  A
N459        C488   1.351   1_565  A
N459        N469   1.325       .  A
H460        C485   1.081       .  S
N461        N482   1.324       .  A
N462       N1076   1.320       .  A
N462        N467   1.324       .  A
C463        N467   1.351       .  A
C463       C1087   1.462       .  S
C463        C558   1.477       .  S
N464        C479   1.341       .  A
N464       Co486   2.088   1_556  S
C465        N493   1.341       .  A
C465        C468   1.463       .  S
C465        H499   1.082       .  S
C468       N1085   1.351       .  A
C468        C578   1.479       .  S
N470        C496   1.341       .  A
N471        C485   1.340       .  A
N471       N1045   1.319       .  A
N472        N500   1.324       .  A
N472       Co490   2.088       .  S
H473        C496   1.081       .  S
H474        C491   1.081       .  S
N476       N1054   1.320   1_455  A
N477        N489   1.325       .  A
N477       N1089   1.320   1_455  A
C478        C492   1.464       .  S
C478        C548   1.479       .  S
C479        H483   1.081       .  S
N480        C491   1.340       .  A
N480       N1058   1.320   1_455  A
N480       Co490   2.083       .  S
C484        C496   1.462       .  S
C484        C518   1.480       .  S
C485       C1044   1.461       .  S
N487        C498   1.352       .  A
C488        C538   1.478       .  S
N489       C1064   1.351   1_455  A
Co490      Cl497   2.450   1_455  S
C491       C1059   1.462   1_455  S
N493       N1073   1.320       .  A
N494       C1052   1.351       .  A
Cl497      Co602   2.449       .  S
Cl497     Co1051   2.451       .  S
C498        C528   1.481       .  S
C501        C581   1.483       .  S
C501        C502   1.413       .  A
C501        C506   1.404       .  A
C502        C591   1.479       .  S
C502        C503   1.405       .  A
C503        H508   1.085       .  S
C503        C504   1.402       .  A
C504        C571   1.481       .  S
C504        C505   1.411       .  A
C505        C561   1.478       .  S
C505        C506   1.405       .  A
C506        H507   1.084       .  S
C509        C541   1.477       .  S
C509        C510   1.410   1_545  A
C509        C514   1.402       .  A
C510        C551   1.479       .  S
C510        C511   1.405       .  A
C511        H516   1.084       .  S
C511        C512   1.403       .  A
C512        C531   1.478       .  S
C512        C513   1.410       .  A
C513        C521   1.477       .  S
C513        C514   1.403   1_565  A
C514        H515   1.085       .  S
C517        H523   1.083       .  S
C517        C518   1.406   1_545  A
C517        C522   1.397       .  A
C518        C519   1.406       .  A
C519        H524   1.082       .  S
C519        C520   1.400       .  A
C520        H525   1.083       .  S
C520        C521   1.403       .  A
C521        C522   1.400   1_565  A
C522        H526   1.084       .  S
C527        H533   1.081       .  S
C527        C532   1.400       .  A
C528        C529   1.406       .  A
C529        H534   1.083       .  S
C529        C530   1.399       .  A
C530        H535   1.083       .  S
C531        C532   1.401       .  A
C532        H536   1.084       .  S
C537        H543   1.084       .  S
C537        C538   1.405   1_565  A
C537        C542   1.398       .  A
C538        C539   1.406       .  A
C539        H544   1.081       .  S
C539        C540   1.399       .  A
C540        H545   1.084       .  S
C540        C541   1.401       .  A
C541        C542   1.402   1_545  A
C542        H546   1.083       .  S
C547        H553   1.082       .  S
C547        C548   1.406       .  A
C549        H554   1.083       .  S
C549        C550   1.397       .  A
C550        H555   1.084       .  S
C550        C551   1.400       .  A
C551        C552   1.404   1_565  A
C557        H563   1.083       .  S
C557        C558   1.406       .  A
C557        C562   1.398       .  A
C558       C1155   1.405       .  A
C559        H564   1.083       .  S
C559       C1154   1.405   1_455  A
C559        C560   1.397       .  A
C560        H565   1.083       .  S
C560       C1157   1.403   1_455  A
C561       C1156   1.403       .  A
C561        C562   1.402       .  A
C562        H566   1.083       .  S
C567        H573   1.082       .  S
C567        C568   1.406       .  A
C567        C572   1.400       .  A
C568       C1165   1.406   1_455  A
C569        H574   1.083       .  S
C569       C1164   1.406       .  A
C569        C570   1.399       .  A
C570        H575   1.083       .  S
C570        C571   1.403       .  A
C571       C1168   1.402       .  A
C572        H576   1.083       .  S
C572       C1167   1.402       .  A
C577        H583   1.082       .  S
C577        C578   1.406       .  A
C577        C582   1.399       .  A
C578       C1175   1.405       .  A
C579        H584   1.083       .  S
C579       C1174   1.405   1_455  A
C579        C580   1.399       .  A
C580        H585   1.083       .  S
C580       C1177   1.404   1_455  A
C581       C1176   1.404       .  A
C581        C582   1.403       .  A
C582        H586   1.083       .  S
C587        H593   1.083       .  S
C587       C1184   1.404       .  A
C587        C592   1.397       .  A
C588       C1183   1.404   1_455  A
C588        C589   1.405       .  A
C589        H594   1.083       .  S
C589        C590   1.397       .  A
C590        H595   1.084       .  S
C590       C1187   1.402       .  A
C591       C1186   1.402       .  A
C591        C592   1.403       .  A
C592        H596   1.083       .  S
C597        N615   1.350       .  A
C597        C737   1.475       .  S
N598        N615   1.324       .  A
N598       Co635   2.083       .  S
C599        N624   1.341       .  A
C599        C935   1.462       .  S
C599        H644   1.082       .  S
H600        C641   1.081       .  S
C601        N625   1.342       .  A
C601        C605   1.464       .  S
C601        H630   1.082       .  S
Co602       N620   2.080       .  S
Co602       N610   2.086       .  S
Co602       N791   2.087       .  S
Co602       N767   2.085       .  S
N603        C641   1.342       .  A
N603        N908   1.319   1_545  A
N603       Co753   2.085       .  S
Co604       N752   2.085       .  S
Co604       N756   2.085       .  S
Co604       N624   2.085   1_556  S
Co604       N611   2.086   1_556  S
C605        C717   1.481       .  S
N606        N911   1.320   1_545  A
N606        N636   1.325       .  A
N606       Co788   2.088       .  S
N607        N643   1.324       .  A
N607       Co753   2.085       .  S
N608        C637   1.351       .  A
N608        N618   1.325       .  A
H609        C634   1.081       .  S
N610        N901   1.319       .  A
N610        N631   1.324       .  A
N611        N616   1.324       .  A
C612        N616   1.351       .  A
C612        C707   1.477       .  S
N613        C628   1.341       .  A
N613        N904   1.320       .  A
N613       Co635   2.088       .  S
C614        N642   1.341       .  A
C614        C617   1.463       .  S
C614        H648   1.082       .  S
C617        C727   1.479       .  S
N618        N922   1.320       .  A
N618       Co751   2.085       .  S
N619        C645   1.341       .  A
N619        N919   1.319       .  A
N619       Co784   2.080       .  S
N620        C634   1.340       .  A
N621        N917   1.319   1_545  A
N621        N649   1.324       .  A
N621       Co639   2.088       .  S
H622        C645   1.081       .  S
H623        C640   1.081       .  S
N624        N916   1.320   1_545  A
N625       Co788   2.089       .  S
N626        N638   1.325       .  A
N626       Co784   2.087       .  S
C627        N929   1.351   1_545  A
C627        C641   1.464       .  S
C627        C697   1.479   1_545  S
C628        C945   1.463       .  S
C628        H632   1.081       .  S
N629        C640   1.340       .  A
N629       Co639   2.083       .  S
N631        C925   1.351       .  A
C633        N947   1.351       .  A
C633        C645   1.463       .  S
C633        C667   1.480       .  S
Co635       N768   2.080       .  S
Co635       N775   2.087       .  S
Co635     Cl1093   2.451       .  S
N636        C647   1.352   1_545  A
C637        C897   1.462       .  S
C637        C687   1.478       .  S
Co639       N755   2.088   1_554  S
Co639       N774   2.089   1_554  S
Co639      Cl646   2.450   1_545  S
N642       Co751   2.087       .  S
Cl646     Co1082   2.451       .  S
C647        C926   1.463       .  S
C647        C677   1.481       .  S
N649        C931   1.351   1_545  A
C650        C730   1.483       .  S
C650        C651   1.413   1_655  A
C650        C655   1.404       .  A
C651        C740   1.479       .  S
C651        C652   1.405       .  A
C652        H657   1.085       .  S
C652        C653   1.402       .  A
C653        C720   1.481       .  S
C653        C654   1.411   1_455  A
C654        C710   1.478       .  S
C654        C655   1.405       .  A
C655        H656   1.084       .  S
C658        C690   1.477       .  S
C658        C659   1.410       .  A
C658        C663   1.402       .  A
C659        C700   1.479       .  S
C659        C660   1.405       .  A
C660        H665   1.084       .  S
C660        C661   1.403       .  A
C661        C680   1.478       .  S
C661        C662   1.410       .  A
C662        C670   1.477       .  S
C662        C663   1.403       .  A
C663        H664   1.085       .  S
C666        H672   1.083       .  S
C666        C667   1.406       .  A
C666        C671   1.397       .  A
C667        C668   1.406       .  A
C668        H673   1.082       .  S
C668        C669   1.400       .  A
C669        H674   1.083       .  S
C669        C670   1.403       .  A
C670        C671   1.400       .  A
C671        H675   1.084       .  S
C676        H682   1.081       .  S
C676        C975   1.407       .  A
C676        C681   1.400       .  A
C677        C974   1.407       .  A
C677        C678   1.406   1_565  A
C678        H683   1.083       .  S
C678        C679   1.399       .  A
C679        H684   1.083       .  S
C679        C978   1.402   1_545  A
C680        C977   1.402       .  A
C680        C681   1.401       .  A
C681        H685   1.084       .  S
C686        H692   1.084       .  S
C686        C687   1.405       .  A
C686        C691   1.398       .  A
C687        C688   1.406       .  A
C688        H693   1.081       .  S
C688        C689   1.399       .  A
C689        H694   1.084       .  S
C689        C690   1.401       .  A
C690        C691   1.402       .  A
C691        H695   1.083       .  S
C696        H702   1.082       .  S
C696        C697   1.406   1_545  A
C696        C999   1.400       .  A
C697        C996   1.406       .  A
C698        H703   1.083       .  S
C698        C995   1.406       .  A
C698        C699   1.397       .  A
C699        H704   1.084       .  S
C699        C700   1.400       .  A
C700        C701   1.404       .  A
C701       H1003   1.083       .  S
C701        C994   1.400       .  A
H705        C999   1.083       .  S
C706        H712   1.083       .  S
C706        C707   1.406       .  A
C706        C711   1.398       .  A
C708        H713   1.083       .  S
C708        C709   1.397       .  A
C709        H714   1.083       .  S
C710        C711   1.402       .  A
C711        H715   1.083       .  S
C716        H722   1.082       .  S
C716        C717   1.406       .  A
C716        C721   1.400       .  A
C718        H723   1.083       .  S
C718        C719   1.399       .  A
C719        H724   1.083       .  S
C719        C720   1.403   1_655  A
C721        H725   1.083       .  S
C726        H732   1.082       .  S
C726        C727   1.406       .  A
C726        C731   1.399       .  A
C728        H733   1.083       .  S
C728        C729   1.399       .  A
C729        H734   1.083       .  S
C730        C731   1.403       .  A
C731        H735   1.084       .  S
C736        H742   1.083       .  S
C736        C741   1.397       .  A
C737        C738   1.405       .  A
C738        H743   1.083       .  S
C738        C739   1.397       .  A
C739        H744   1.084       .  S
C740        C741   1.403   1_455  A
C741        H745   1.083       .  S
C746        N764   1.350       .  A
C746        C886   1.475       .  S
N747        N764   1.324       .  A
N747       Co784   2.083   1_556  S
C748        N773   1.341       .  A
C748       C1084   1.462       .  S
C748        H793   1.082       .  S
H749        C790   1.081       .  S
C750        N774   1.342       .  A
C750        C754   1.464       .  S
C750        H779   1.082       .  S
Co751       N769   2.080   1_554  S
Co751       N759   2.086   1_554  S
N752        C790   1.342       .  A
N752       N1057   1.319   1_545  A
Co753       N773   2.085       .  S
Co753       N760   2.086       .  S
C754        C866   1.481       .  S
N755       N1060   1.320   1_545  A
N755        N785   1.325       .  A
N756        N792   1.324       .  A
N757        C786   1.351       .  A
N757        N767   1.325       .  A
H758        C783   1.081       .  S
N759       N1050   1.319       .  A
N759        N780   1.324       .  A
N760        N765   1.324       .  A
C761        N765   1.351       .  A
C761        C856   1.477       .  S
N762        C777   1.341       .  A
N762       N1053   1.320       .  A
N762       Co784   2.088   1_556  S
C763        N791   1.341       .  A
C763        C766   1.463       .  S
C763        H797   1.082       .  S
C766        C876   1.479       .  S
N767       N1071   1.320       .  A
N768        C794   1.341       .  A
N768       N1068   1.319       .  A
N769        C783   1.340       .  A
N770       N1066   1.319   1_545  A
N770        N798   1.324       .  A
N770       Co788   2.089       .  S
H771        C794   1.081       .  S
H772        C789   1.081       .  S
N773       N1065   1.320   1_545  A
N775        N787   1.325       .  A
C776       N1078   1.351   1_545  A
C776        C790   1.464       .  S
C776        C846   1.479   1_545  S
C777       C1094   1.463       .  S
C777        H781   1.081       .  S
N778        C789   1.340       .  A
N778       Co788   2.083       .  S
N780       C1074   1.351       .  A
C782       N1096   1.351       .  A
C782        C794   1.463       .  S
C782        C816   1.480       .  S
Co784      Cl944   2.451       .  S
N785        C796   1.352   1_545  A
C786       C1046   1.462       .  S
C786        C836   1.478       .  S
Co788      Cl795   2.450   1_545  S
Cl795      Co933   2.451       .  S
C796       C1075   1.463       .  S
C796        C826   1.481       .  S
N798       C1080   1.351   1_545  A
C799        C879   1.483       .  S
C799        C800   1.413   1_655  A
C799        C804   1.404       .  A
C800        C889   1.479       .  S
C800        C801   1.405       .  A
C801        H806   1.085       .  S
C801        C802   1.402       .  A
C802        C869   1.481       .  S
C802        C803   1.411   1_455  A
C803        C859   1.478       .  S
C803        C804   1.405       .  A
C804        H805   1.084       .  S
C807        C839   1.477       .  S
C807        C808   1.410       .  A
C807        C812   1.402       .  A
C808        C849   1.479       .  S
C808        C809   1.405       .  A
C809        H814   1.084       .  S
C809        C810   1.403       .  A
C810        C829   1.478       .  S
C810        C811   1.410       .  A
C811        C819   1.477       .  S
C811        C812   1.403       .  A
C812        H813   1.085       .  S
C815        H821   1.083       .  S
C815        C816   1.406       .  A
C815        C820   1.397       .  A
C816        C817   1.406       .  A
C817        H822   1.082       .  S
C817        C818   1.400       .  A
C818        H823   1.083       .  S
C818        C819   1.403       .  A
C819        C820   1.400       .  A
C820        H824   1.084       .  S
C825        H831   1.081       .  S
C825       C1124   1.407       .  A
C825        C830   1.400       .  A
C826       C1123   1.407       .  A
C826        C827   1.406   1_565  A
C827        H832   1.083       .  S
C827        C828   1.399       .  A
C828        H833   1.083       .  S
C828       C1127   1.402   1_545  A
C829       C1126   1.402       .  A
C829        C830   1.401       .  A
C830        H834   1.084       .  S
C835        H841   1.084       .  S
C835        C836   1.405       .  A
C835        C840   1.398       .  A
C836        C837   1.406       .  A
C837        H842   1.081       .  S
C837        C838   1.399       .  A
C838        H843   1.084       .  S
C838        C839   1.401       .  A
C839        C840   1.402       .  A
C840        H844   1.083       .  S
C845        H851   1.082       .  S
C845        C846   1.406   1_545  A
C845       C1148   1.400       .  A
C846       C1145   1.406       .  A
C847        H852   1.083       .  S
C847       C1144   1.406       .  A
C847        C848   1.397       .  A
C848        H853   1.084       .  S
C848        C849   1.400       .  A
C849        C850   1.404       .  A
C850       H1152   1.083       .  S
C850       C1143   1.400       .  A
H854       C1148   1.083       .  S
C855        H861   1.083       .  S
C855        C856   1.406       .  A
C855        C860   1.398       .  A
C857        H862   1.083       .  S
C857        C858   1.397       .  A
C858        H863   1.083       .  S
C859        C860   1.402       .  A
C860        H864   1.083       .  S
C865        H871   1.082       .  S
C865        C866   1.406       .  A
C865        C870   1.400       .  A
C867        H872   1.083       .  S
C867        C868   1.399       .  A
C868        H873   1.083       .  S
C868        C869   1.403   1_655  A
C870        H874   1.083       .  S
C875        H881   1.082       .  S
C875        C876   1.406       .  A
C875        C880   1.399       .  A
C877        H882   1.083       .  S
C877        C878   1.399       .  A
C878        H883   1.083       .  S
C879        C880   1.403       .  A
C880        H884   1.084       .  S
C885        H891   1.083       .  S
C885        C890   1.397       .  A
C886        C887   1.405       .  A
C887        H892   1.083       .  S
C887        C888   1.397       .  A
C888        H893   1.084       .  S
C889        C890   1.403   1_455  A
C890        H894   1.083       .  S
C895        N913   1.350       .  A
C895       C1035   1.475       .  S
N896        N913   1.324       .  A
N896       Co933   2.083       .  S
C897        N922   1.341       .  A
C897        H942   1.082       .  S
H898        C939   1.081       .  S
C899        N923   1.342       .  A
C899        C903   1.464       .  S
C899        H928   1.082       .  S
Co900       N918   2.080       .  S
Co900       N908   2.086       .  S
Co900      N1089   2.087       .  S
Co900      N1065   2.085       .  S
N901        C939   1.342       .  A
N901      Co1051   2.085       .  S
Co902      N1050   2.085       .  S
Co902      N1054   2.085       .  S
Co902       N922   2.085   1_556  S
Co902       N909   2.086   1_556  S
C903       C1015   1.481       .  S
N904        N934   1.325       .  A
N904      Co1086   2.088       .  S
N905        N941   1.324       .  A
N905      Co1051   2.085       .  S
N906        C935   1.351   1_565  A
N906        N916   1.325       .  A
H907        C932   1.081       .  S
N908        N929   1.324       .  A
N909        N914   1.324       .  A
C910        N914   1.351       .  A
C910       C1005   1.477       .  S
N911        C926   1.341       .  A
N911       Co933   2.088       .  S
C912        N940   1.341       .  A
C912        C915   1.463       .  S
C912        H946   1.082       .  S
C915       C1025   1.479       .  S
N916      Co1049   2.085       .  S
N917        C943   1.341       .  A
N917      Co1082   2.080       .  S
N918        C932   1.340       .  A
N919        N947   1.324       .  A
N919       Co937   2.088       .  S
H920        C943   1.081       .  S
H921        C938   1.081       .  S
N923      Co1086   2.089       .  S
N924        N936   1.325       .  A
N924      Co1082   2.087       .  S
C925        C939   1.464       .  S
C925        C995   1.479       .  S
C926        H930   1.081       .  S
N927        C938   1.340       .  A
N927       Co937   2.083       .  S
C931        C943   1.463       .  S
C931        C965   1.480       .  S
Co933      N1066   2.080       .  S
Co933      N1073   2.087       .  S
N934        C945   1.352       .  A
C935        C985   1.478       .  S
Co937      N1053   2.088   1_554  S
Co937      N1072   2.089   1_554  S
Co937      Cl944   2.450       .  S
N940      Co1049   2.087       .  S
C945        C975   1.481       .  S
C948       C1028   1.483       .  S
C948        C949   1.413   1_655  A
C948        C953   1.404       .  A
C949       C1038   1.479       .  S
C949        C950   1.405       .  A
C950        H955   1.085       .  S
C950        C951   1.402       .  A
C951       C1018   1.481       .  S
C951        C952   1.411   1_455  A
C952       C1008   1.478       .  S
C952        C953   1.405       .  A
C953        H954   1.084       .  S
C956        C988   1.477       .  S
C956        C957   1.410   1_545  A
C956        C961   1.402       .  A
C957        C998   1.479       .  S
C957        C958   1.405       .  A
C958        H963   1.085       .  S
C958        C959   1.403       .  A
C959        C978   1.478       .  S
C959        C960   1.410       .  A
C960        C968   1.477       .  S
C960        C961   1.403   1_565  A
C961        H962   1.085       .  S
C964        H970   1.083       .  S
C964        C965   1.406   1_545  A
C964        C969   1.397       .  A
C965        C966   1.406       .  A
C966        H971   1.082       .  S
C966        C967   1.400       .  A
C967        H972   1.083       .  S
C967        C968   1.403       .  A
C968        C969   1.400   1_565  A
C969        H973   1.084       .  S
C974        H980   1.081       .  S
C974        C979   1.400       .  A
C975        C976   1.406       .  A
C976        H981   1.084       .  S
C976        C977   1.399       .  A
C977        H982   1.083       .  S
C978        C979   1.401       .  A
C979        H983   1.084       .  S
C984        H990   1.083       .  S
C984        C985   1.405   1_565  A
C984        C989   1.398       .  A
C985        C986   1.406       .  A
C986        H991   1.081       .  S
C986        C987   1.399       .  A
C987        H992   1.084       .  S
C987        C988   1.401       .  A
C988        C989   1.402   1_545  A
C989        H993   1.083       .  S
C994       H1000   1.082       .  S
C994        C995   1.406       .  A
C996       H1001   1.083       .  S
C996        C997   1.397       .  A
C997       H1002   1.084       .  S
C997        C998   1.400       .  A
C998        C999   1.404   1_565  A
C1004      H1010   1.083       .  S
C1004      C1005   1.406       .  A
C1004      C1009   1.398       .  A
C1006      H1011   1.083       .  S
C1006      C1007   1.397       .  A
C1007      H1012   1.083       .  S
C1008      C1009   1.402       .  A
C1009      H1013   1.084       .  S
C1014      H1020   1.082       .  S
C1014      C1015   1.406       .  A
C1014      C1019   1.400       .  A
C1016      H1021   1.083       .  S
C1016      C1017   1.399       .  A
C1017      H1022   1.083       .  S
C1017      C1018   1.403   1_655  A
C1019      H1023   1.083       .  S
C1024      H1030   1.082       .  S
C1024      C1025   1.406       .  A
C1024      C1029   1.399       .  A
C1026      H1031   1.083       .  S
C1026      C1027   1.399       .  A
C1027      H1032   1.083       .  S
C1028      C1029   1.403       .  A
C1029      H1033   1.084       .  S
C1034      H1040   1.083       .  S
C1034      C1039   1.397       .  A
C1035      C1036   1.405       .  A
C1036      H1041   1.083       .  S
C1036      C1037   1.397       .  A
C1037      H1042   1.084       .  S
C1038      C1039   1.403   1_455  A
C1039      H1043   1.083       .  S
C1044      N1062   1.350       .  A
C1044      C1184   1.475       .  S
N1045      N1062   1.324       .  A
N1045     Co1082   2.083   1_556  S
C1046      N1071   1.341       .  A
C1046      H1091   1.082       .  S
H1047      C1088   1.081       .  S
C1048      N1072   1.342       .  A
C1048      C1052   1.464       .  S
C1048      H1077   1.082       .  S
Co1049     N1067   2.080   1_554  S
Co1049     N1057   2.086   1_554  S
N1050      C1088   1.342       .  A
Co1051     N1071   2.085       .  S
Co1051     N1058   2.086       .  S
C1052      C1164   1.481       .  S
N1053      N1083   1.325       .  A
N1054      N1090   1.324       .  A
N1055      C1084   1.351   1_565  A
N1055      N1065   1.325       .  A
H1056      C1081   1.081       .  S
N1057      N1078   1.324       .  A
N1058      N1063   1.324       .  A
C1059      N1063   1.351       .  A
C1059      C1154   1.477       .  S
N1060      C1075   1.341       .  A
N1060     Co1082   2.088   1_556  S
C1061      N1089   1.341       .  A
C1061      C1064   1.463       .  S
C1061      H1095   1.082       .  S
C1064      C1174   1.479       .  S
N1066      C1092   1.341       .  A
N1067      C1081   1.340       .  A
N1068      N1096   1.324       .  A
N1068     Co1086   2.088       .  S
H1069      C1092   1.081       .  S
H1070      C1087   1.082       .  S
N1073      N1085   1.325       .  A
C1074      C1088   1.464       .  S
C1074      C1144   1.479       .  S
C1075      H1079   1.081       .  S
N1076      C1087   1.340       .  A
N1076     Co1086   2.083       .  S
C1080      C1092   1.462       .  S
C1080      C1114   1.480       .  S
N1083      C1094   1.352       .  A
C1084      C1134   1.478       .  S
Co1086    Cl1093   2.450       .  S
C1094      C1124   1.481       .  S
C1097      C1177   1.483       .  S
C1097      C1098   1.413   1_655  A
C1097      C1102   1.404       .  A
C1098      C1187   1.479       .  S
C1098      C1099   1.405       .  A
C1099      H1104   1.085       .  S
C1099      C1100   1.402       .  A
C1100      C1167   1.481       .  S
C1100      C1101   1.411   1_455  A
C1101      C1157   1.478       .  S
C1101      C1102   1.405       .  A
C1102      H1103   1.084       .  S
C1105      C1137   1.477       .  S
C1105      C1106   1.410   1_545  A
C1105      C1110   1.402       .  A
C1106      C1147   1.479       .  S
C1106      C1107   1.405       .  A
C1107      H1112   1.084       .  S
C1107      C1108   1.403       .  A
C1108      C1127   1.478       .  S
C1108      C1109   1.410       .  A
C1109      C1117   1.477       .  S
C1109      C1110   1.403   1_565  A
C1110      H1111   1.085       .  S
C1113      H1119   1.083       .  S
C1113      C1114   1.406   1_545  A
C1113      C1118   1.397       .  A
C1114      C1115   1.406       .  A
C1115      H1120   1.082       .  S
C1115      C1116   1.400       .  A
C1116      H1121   1.083       .  S
C1116      C1117   1.403       .  A
C1117      C1118   1.400   1_565  A
C1118      H1122   1.084       .  S
C1123      H1129   1.081       .  S
C1123      C1128   1.400       .  A
C1124      C1125   1.406       .  A
C1125      H1130   1.084       .  S
C1125      C1126   1.399       .  A
C1126      H1131   1.083       .  S
C1127      C1128   1.401       .  A
C1128      H1132   1.084       .  S
C1133      H1139   1.083       .  S
C1133      C1134   1.405   1_565  A
C1133      C1138   1.398       .  A
C1134      C1135   1.406       .  A
C1135      H1140   1.081       .  S
C1135      C1136   1.399       .  A
C1136      H1141   1.084       .  S
C1136      C1137   1.401       .  A
C1137      C1138   1.402   1_545  A
C1138      H1142   1.083       .  S
C1143      H1149   1.082       .  S
C1143      C1144   1.406       .  A
C1145      H1150   1.083       .  S
C1145      C1146   1.397       .  A
C1146      H1151   1.084       .  S
C1146      C1147   1.400       .  A
C1147      C1148   1.404   1_565  A
C1153      H1159   1.083       .  S
C1153      C1154   1.406       .  A
C1153      C1158   1.398       .  A
C1155      H1160   1.083       .  S
C1155      C1156   1.397       .  A
C1156      H1161   1.083       .  S
C1157      C1158   1.402       .  A
C1158      H1162   1.084       .  S
C1163      H1169   1.082       .  S
C1163      C1164   1.406       .  A
C1163      C1168   1.400       .  A
C1165      H1170   1.083       .  S
C1165      C1166   1.399       .  A
C1166      H1171   1.083       .  S
C1166      C1167   1.403   1_655  A
C1168      H1172   1.083       .  S
C1173      H1179   1.082       .  S
C1173      C1174   1.406       .  A
C1173      C1178   1.399       .  A
C1175      H1180   1.083       .  S
C1175      C1176   1.399       .  A
C1176      H1181   1.083       .  S
C1177      C1178   1.403       .  A
C1178      H1182   1.084       .  S
C1183      H1189   1.083       .  S
C1183      C1188   1.397       .  A
C1184      C1185   1.405       .  A
C1185      H1190   1.083       .  S
C1185      C1186   1.397       .  A
C1186      H1191   1.084       .  S
C1187      C1188   1.403   1_455  A
C1188      H1192   1.083       .  S
