geometry optimzed in LAMMPS
_audit_creation_date              2020-12-01 
_audit_creation_method            'lammps2cif' 
_symmetry_space_group_name_H-M    'P1' 
_symmetry_Int_Tables_number       1 
_symmetry_cell_setting            triclinic 
loop_ 
_symmetry_equiv_pos_as_xyz 
  x,y,z 
_cell_length_a                    33.27181927 
_cell_length_b                    33.23211916438436 
_cell_length_c                    37.84149700128754 
_cell_angle_alpha                 90.0630000976391 
_cell_angle_beta                  89.99332427614407 
_cell_angle_gamma                 120.04310607184868 
loop_ 
_atom_site_label 
_atom_site_type_symbol 
_atom_site_fract_x 
_atom_site_fract_y 
_atom_site_fract_z 
_atom_site_charge 
C1          C  0.11125829  0.22334228  0.59412299     0.49900
H2          H  0.11113053  0.22340658  0.56479720     0.00900
C3          C  0.11152598  0.22315937  0.66269017     0.50000
H4          H  0.11166628  0.22310931  0.69177149     0.00900
C5          C  0.15985966  0.25001102  0.60986425    -0.12800
C6          C  0.08469029  0.24519559  0.61015011    -0.12500
C7          C  0.08941547  0.17471067  0.60988160    -0.12900
C8          C  0.16086885  0.24954463  0.64600167    -0.12900
C9          C  0.08515941  0.24629289  0.64629045    -0.12500
C10         C  0.08832514  0.17371996  0.64602201    -0.12800
C11         C  0.11116517  0.22308366  0.77759682     0.49900
H12         H  0.11096284  0.22305581  0.74851511     0.00900
C13         C  0.11157921  0.22310386  0.84598688     0.50000
H14         H  0.11176379  0.22314046  0.87489846     0.00900
C15         C  0.16034241  0.25302732  0.79405052    -0.12800
C16         C  0.08136601  0.24225639  0.79438585    -0.12500
C17         C  0.09209383  0.17397503  0.79415238    -0.12900
C18         C  0.15948735  0.25416818  0.83022257    -0.12900
C19         C  0.08044095  0.24003669  0.83056271    -0.12500
C20         C  0.09451151  0.17504372  0.83032033    -0.12800
C21         C  0.33362600  0.00052910  0.68566744     0.49900
H22         H  0.00046276  0.00062760  0.65627645     0.00900
C23         C  0.33340543  0.00069977  0.75475533     0.50000
H24         H  0.33331995  0.00079752  0.78412151     0.00900
C25         C  0.02282728  0.30731875  0.70237017    -0.12800
C26         C  0.02683652  0.05007389  0.70204920    -0.12500
C27         C  0.28426762  0.31122123  0.70212248    -0.12900
C28         C  0.02239394  0.30705017  0.73856555    -0.12900
C29         C  0.02703825  0.05014886  0.73825057    -0.12500
C30         C  0.28409883  0.31160649  0.73831654    -0.12800
C31         C  0.22245975  0.11218096  0.27753300     0.49900
H32         H  0.22230432  0.11216570  0.24846327     0.00900
C33         C  0.22274759  0.11216815  0.34592914     0.50000
H34         H  0.22287922  0.11217931  0.37484806     0.00900
C35         C  0.17347338  0.08220980  0.29423600    -0.12800
C36         C  0.25246589  0.09307208  0.29398897    -0.12500
C37         C  0.24167781  0.16130015  0.29416333    -0.12900
C38         C  0.17468327  0.08104262  0.33039741    -0.12900
C39         C  0.25375995  0.09526337  0.33015863    -0.12500
C40         C  0.23958961  0.16020623  0.33033220    -0.12800
C41         C  0.22232975  0.11214345  0.09423408     0.49900
H42         H  0.22213211  0.11217811  0.06490852     0.00900
C43         C  0.22278318  0.11208778  0.16279861     0.50000
H44         H  0.22300772  0.11209749  0.19186746     0.00900
C45         C  0.17389934  0.08547300  0.11024690    -0.12800
C46         C  0.24909181  0.09025123  0.10985505    -0.12500
C47         C  0.24431780  0.16071168  0.11013063    -0.12900
C48         C  0.17325049  0.08576313  0.14638689    -0.12900
C49         C  0.24897781  0.08898369  0.14599777    -0.12500
C50         C  0.24578946  0.16155153  0.14625857    -0.12800
C51         C  0.00056110  0.00110625  0.18583032     0.49900
H52         H  0.33409941  0.00103939  0.15647813     0.00900
C53         C  0.00030147  0.00130158  0.25492127     0.50000
H54         H  0.00020222  0.00140869  0.28428721     0.00900
C55         C  0.31119081  0.02773134  0.20208909    -0.12800
C56         C  0.30735433  0.28516761  0.20222841    -0.12500
C57         C  0.04976300  0.02391135  0.20238486    -0.12900
C58         C  0.31136711  0.02816296  0.23828772    -0.12900
C59         C  0.30688555  0.28520408  0.23841950    -0.12500
C60         C  0.04965402  0.02369416  0.23857658    -0.12800
Zn61       Zn  0.33365457  0.00069617  0.92062294     1.49700
Zn62       Zn  0.02026273  0.29125302  0.98712125     1.49400
Zn63       Zn  0.04297845  0.06420807  0.98687421     1.49100
Zn64       Zn  0.27056340  0.31410264  0.98671712     1.49500
O65         O  0.33350919  0.00094894  0.97105585    -1.79700
O66         O  0.01959455  0.29304337  0.90069572    -0.70300
O67         O  0.07811748  0.99128601  0.01639828    -0.70100
O68         O  0.07672485  0.10778094  0.94559784    -0.69600
O69         O  0.03067045  0.25756764  0.94603547    -0.70300
O70         O  0.04140397  0.06083371  0.90031446    -0.69900
O71         O  0.08764720  0.06238418  0.02110914    -0.70500
O72         O  0.27219769  0.02760981  0.02038778    -0.69900
O73         O  0.30672308  0.24665347  0.02102427    -0.70600
O74         O  0.34317813  0.08929516  0.01579385    -0.70000
O75         O  0.24533713  0.25629072  0.01620988    -0.70500
O76         O  0.22712865  0.30393194  0.94535779    -0.70400
O77         O  0.27384100  0.31481492  0.90014746    -0.70200
C78         C  0.03019147  0.26428303  0.91289285     0.81600
C79         C  0.09793260  0.03172154  0.02993668     0.82100
C80         C  0.07015242  0.10031339  0.91245534     0.81000
C81         C  0.30272765  0.06867347  0.02918781     0.81400
C82         C  0.26580525  0.23642573  0.02981161     0.82600
C83         C  0.23449829  0.30443807  0.91224381     0.81600
Zn84       Zn  0.06336510  0.02147350  0.48678176     1.49700
Zn85       Zn  0.29069747  0.27129672  0.48681272     1.49400
Zn86       Zn  0.31335165  0.04380424  0.48657959     1.49100
Zn87       Zn  0.00047820  0.00111286  0.42044140     1.49500
O88         O  0.00038793  0.00121054  0.47087742    -1.79700
O89         O  0.06132885  0.30799114  0.52099462    -0.70300
O90         O  0.24577847  0.27325471  0.52063183    -0.70100
O91         O  0.02674504  0.08889196  0.52050048    -0.69600
O92         O  0.99026126  0.24647020  0.51633255    -0.70300
O93         O  0.08832059  0.07951068  0.51586083    -0.69900
O94         O  0.25520482  0.34426220  0.51576866    -0.70500
O95         O  0.31514078  0.04214716  0.39995331    -0.69900
O96         O  0.25723804  0.22757736  0.44558271    -0.70600
O97         O  0.30335167  0.07728475  0.44525603    -0.70000
O98         O  0.29283389  0.27434036  0.40032913    -0.70500
O99         O  0.06043818  0.01990819  0.40028398    -0.70400
O100        O  0.10714943  0.03158676  0.44566105    -0.70200
C101        C  0.03064401  0.26704908  0.52987391     0.81600
C102        C  0.23537860  0.30387622  0.52934625     0.82100
C103        C  0.06771670  0.09932775  0.52931485     0.81000
C104        C  0.30433011  0.07080924  0.41211229     0.81400
C105        C  0.26396024  0.23493711  0.41246264     0.82600
C106        C  0.09984406  0.03071173  0.41251014     0.81600
C107        C  0.13353635  0.04350225  0.05681084    -0.12000
C108        C  0.13273602  0.06412106  0.08713245    -0.27100
H109        H  0.16113036  0.03587042  0.05147161     0.17100
H110        H  0.10305393  0.06795873  0.09380895     0.17600
C111        C  0.26376121  0.20181737  0.08694855    -0.12000
C112        C  0.24200061  0.20093079  0.05680265    -0.27100
H113        H  0.29740875  0.23155916  0.09340156     0.17100
H114        H  0.20669743  0.17328554  0.05164171     0.17600
C115        C  0.27052385  0.07082931  0.08642933    -0.12000
C116        C  0.29080068  0.09239935  0.05608408    -0.27100
H117        H  0.26712899  0.03742488  0.09297233     0.17100
H118        H  0.29806390  0.12755245  0.05080108     0.17600
C119        C  0.28534644  0.24210547  0.18165635    -0.08800
C120        C  0.26686765  0.20490573  0.16637058    -0.10400
C121        C  0.29025716  0.04967989  0.18131205    -0.08800
C122        C  0.27151473  0.06804917  0.16594568    -0.10400
C123        C  0.13000459  0.06344855  0.16659026    -0.08800
C124        C  0.09284431  0.04479476  0.18187466    -0.10400
C125        C  0.13793158  0.04469359  0.38736259    -0.12000
C126        C  0.13379697  0.05543456  0.35357969    -0.27100
H127        H  0.17035689  0.04918418  0.39757558     0.17100
H128        H  0.10035305  0.04849865  0.34349654     0.17600
C129        C  0.25486443  0.20113628  0.35349072    -0.12000
C130        C  0.23982975  0.19692356  0.38722538    -0.27100
H131        H  0.28149634  0.23460620  0.34346843     0.17100
H132        H  0.21173031  0.16446367  0.39731985     0.17600
C133        C  0.29047946  0.09497789  0.38692651    -0.12000
C134        C  0.27949771  0.07996212  0.35316950    -0.27100
H135        H  0.28620344  0.12308992  0.39713062     0.17100
H136        H  0.28621897  0.05329051  0.34304624     0.17600
C137        C  0.26310604  0.20482598  0.27414003    -0.08800
C138        C  0.28309585  0.24211471  0.25896888    -0.10400
C139        C  0.27448000  0.07173083  0.27382543    -0.08800
C140        C  0.29185974  0.05183999  0.25867259    -0.10400
C141        C  0.12993742  0.06028691  0.27428993    -0.08800
C142        C  0.09265279  0.04304329  0.25917342    -0.10400
C143        C  0.07926933  0.13408522  0.85344464    -0.12000
C144        C  0.09430272  0.13828208  0.88720722    -0.27100
H145        H  0.05259672  0.10061421  0.84339834     0.17100
H146        H  0.12243469  0.17071975  0.89734784     0.17600
C147        C  0.20054553  0.27970444  0.85326626    -0.12000
C148        C  0.19654650  0.29067628  0.88702034    -0.27100
H149        H  0.23386584  0.28628449  0.84317278     0.17100
H150        H  0.16425038  0.28659939  0.89716150     0.17600
C151        C  0.05488713  0.25523135  0.85388014    -0.12000
C152        C  0.04429972  0.24030896  0.88768101    -0.27700
H153        H  0.04781388  0.28168619  0.84385892     0.17100
H154        H  0.04885833  0.21236556  0.89781960     0.17600
C155        C  0.20370656  0.27499098  0.77389656    -0.08800
C156        C  0.24096032  0.29227283  0.75873845    -0.10400
C157        C  0.04180786  0.28348768  0.75923032    -0.08800
C158        C  0.05919048  0.26364071  0.77445004    -0.10400
C159        C  0.07058426  0.13050672  0.77404927    -0.08800
C160        C  0.05065383  0.09325931  0.75879559    -0.10400
C161        C  0.09143385  0.13492108  0.55624556    -0.12000
C162        C  0.06986754  0.13372912  0.58655412    -0.27100
H163        H  0.12661698  0.16273668  0.55100128     0.17100
H164        H  0.03640911  0.10380221  0.59309127     0.17600
C165        C  0.19979606  0.29208029  0.55626987    -0.12000
C166        C  0.20081815  0.27151610  0.58654503    -0.27100
H167        H  0.17209021  0.29956523  0.55101497     0.17100
H168        H  0.23064203  0.26785573  0.59307135     0.17600
C169        C  0.04238238  0.24323408  0.55680520    -0.12000
C170        C  0.06315171  0.26483255  0.58705680    -0.27100
H171        H  0.03474039  0.20794353  0.55151894     0.17100
H172        H  0.06703502  0.29843765  0.59366775     0.17600
C173        C  0.04893127  0.09310530  0.68140033    -0.08800
C174        C  0.06737243  0.13027060  0.66605449    -0.10400
C175        C  0.24136825  0.29037606  0.68139576    -0.08800
C176        C  0.20425983  0.27179957  0.66603176    -0.10400
C177        C  0.06274474  0.26705861  0.66653396    -0.08800
C178        C  0.04393015  0.28535173  0.68187462    -0.10400
C179        C  0.11097773  0.55629679  0.59412125     0.49900
H180        H  0.11080898  0.55632083  0.56479552     0.00900
C181        C  0.11135949  0.55622563  0.66268932     0.50000
H182        H  0.11154360  0.55621879  0.69176940     0.00900
C183        C  0.15960836  0.58296702  0.60982651    -0.12800
C184        C  0.08443121  0.57817655  0.61014186    -0.12500
C185        C  0.08915557  0.50769216  0.60992221    -0.12900
C186        C  0.16068412  0.58256393  0.64596357    -0.12900
C187        C  0.08497092  0.57934504  0.64628410    -0.12500
C188        C  0.08813140  0.50676009  0.64606243    -0.12800
C189        C  0.11107149  0.55628267  0.77759776     0.49900
H190        H  0.11084356  0.55624733  0.74851723     0.00900
C191        C  0.11154099  0.55630661  0.84598754     0.50000
H192        H  0.11176873  0.55633034  0.87489668     0.00900
C193        C  0.16028769  0.58609470  0.79402541    -0.12800
C194        C  0.08141938  0.57562144  0.79440789    -0.12500
C195        C  0.09186566  0.50715742  0.79415824    -0.12900
C196        C  0.15946509  0.58723279  0.83019918    -0.12900
C197        C  0.08054527  0.57343674  0.83059213    -0.12500
C198        C  0.09428096  0.50821320  0.83032039    -0.12800
C199        C  0.33357627  0.33385895  0.68581037     0.49900
H200        H  0.00029973  0.33373938  0.65639203     0.00900
C201        C  0.33333373  0.33407210  0.75489973     0.50000
H202        H  0.33323730  0.33418946  0.78426590     0.00900
C203        C  0.02286643  0.64064737  0.70233203    -0.12800
C204        C  0.02668226  0.38318746  0.70215147    -0.12500
C205        C  0.28419105  0.64432370  0.70202602    -0.12900
C206        C  0.02246534  0.64043289  0.73852999    -0.12900
C207        C  0.02685680  0.38328078  0.73834988    -0.12500
C208        C  0.28401618  0.64472358  0.73822272    -0.12800
C209        C  0.22253111  0.44542391  0.27751035     0.49900
H210        H  0.22238355  0.44541439  0.24844019     0.00900
C211        C  0.22281115  0.44539513  0.34590639     0.50000
H212        H  0.22294908  0.44540842  0.37482602     0.00900
C213        C  0.17355070  0.41539958  0.29421054    -0.12800
C214        C  0.25257680  0.42636652  0.29396227    -0.12500
C215        C  0.24169294  0.49453003  0.29414651    -0.12900
C216        C  0.17475497  0.41421799  0.33037816    -0.12900
C217        C  0.25387200  0.42855608  0.33012852    -0.12500
C218        C  0.23959422  0.49342375  0.33031186    -0.12800
C219        C  0.22249033  0.44549700  0.09420266     0.49900
H220        H  0.22237029  0.44553397  0.06487630     0.00900
C221        C  0.22278101  0.44542372  0.16276962     0.50000
H222        H  0.22292553  0.44541106  0.19183907     0.00900
C223        C  0.17402512  0.41872795  0.11014432    -0.12800
C224        C  0.24928441  0.42368098  0.10988131    -0.12500
C225        C  0.24435514  0.49405914  0.11011762    -0.12900
C226        C  0.17329383  0.41902858  0.14628666    -0.12900
C227        C  0.24907964  0.42239767  0.14601928    -0.12500
C228        C  0.24575051  0.49489772  0.14624979    -0.12800
C229        C  0.00060932  0.33442728  0.18578682     0.49900
H230        H  0.33404614  0.33433113  0.15637288     0.00900
C231        C  0.00044441  0.33466572  0.25487809     0.50000
H232        H  0.00038057  0.33478111  0.28424420     0.00900
C233        C  0.31121606  0.36104218  0.20202548    -0.12800
C234        C  0.30717692  0.61850618  0.20230238    -0.12500
C235        C  0.04983210  0.35721079  0.20230522    -0.12900
C236        C  0.31141927  0.36145742  0.23822038    -0.12900
C237        C  0.30672989  0.61850717  0.23849483    -0.12500
C238        C  0.04977111  0.35701405  0.23849955    -0.12800
Zn239      Zn  0.33371445  0.33399290  0.92061958     1.49700
Zn240      Zn  0.02040772  0.62502118  0.98713576     1.49400
Zn241      Zn  0.04307413  0.39727012  0.98683796     1.49100
Zn242      Zn  0.27044074  0.64730292  0.98672555     1.49500
O243        O  0.33357727  0.33423550  0.97105827    -1.79700
O244        O  0.01985035  0.62674709  0.90068660    -0.70300
O245        O  0.07801915  0.32422946  0.01651282    -0.70100
O246        O  0.07653543  0.44081915  0.94552584    -0.69600
O247        O  0.03101869  0.59143638  0.94608976    -0.70300
O248        O  0.04122085  0.39382798  0.90026381    -0.69900
O249        O  0.08801062  0.39554060  0.02082297    -0.70500
O250        O  0.27243098  0.36109126  0.02045127    -0.69900
O251        O  0.30678607  0.58009870  0.02108485    -0.70600
O252        O  0.34352661  0.42261228  0.01595244    -0.70000
O253        O  0.24520992  0.58938790  0.01608414    -0.70500
O254        O  0.22710380  0.63722116  0.94531035    -0.70400
O255        O  0.27382019  0.64790723  0.90013966    -0.70200
C256        C  0.03055262  0.59809122  0.91293713     0.81600
C257        C  0.09812600  0.36481033  0.02980766     0.82100
C258        C  0.06992649  0.43333745  0.91239151     0.81000
C259        C  0.30305409  0.40209085  0.02931143     0.81400
C260        C  0.26578737  0.56968900  0.02977480     0.82600
C261        C  0.23448518  0.63760552  0.91220505     0.81600
Zn262      Zn  0.06324787  0.35456436  0.48678627     1.49700
Zn263      Zn  0.29057533  0.60435871  0.48680108     1.49400
Zn264      Zn  0.31321666  0.37703397  0.48653408     1.49100
Zn265      Zn  0.00056657  0.33445008  0.42044503     1.49500
O266        O  0.00029798  0.33438634  0.47088167    -1.79700
O267        O  0.06095606  0.64097912  0.52101417    -0.70300
O268        O  0.24556510  0.60621856  0.52056244    -0.70100
O269        O  0.02652284  0.42190330  0.52055562    -0.69600
O270        O  0.98993827  0.57940183  0.51626823    -0.70300
O271        O  0.08812381  0.41255446  0.51588841    -0.69900
O272        O  0.25510543  0.67729556  0.51590444    -0.70500
O273        O  0.31509528  0.37537874  0.39995474    -0.69900
O274        O  0.25713939  0.56067359  0.44555643    -0.70600
O275        O  0.30339029  0.41062177  0.44522373    -0.70000
O276        O  0.29259948  0.60753649  0.40032909    -0.70500
O277        O  0.06053293  0.35323751  0.40029447    -0.70400
O278        O  0.10714301  0.36470365  0.44568822    -0.70200
C279        C  0.03029894  0.60000643  0.52985730     0.81600
C280        C  0.23518466  0.63683244  0.52934655     0.82100
C281        C  0.06749182  0.43232749  0.52937108     0.81000
C282        C  0.30436850  0.40411319  0.41208836     0.81400
C283        C  0.26380325  0.56809153  0.41244045     0.82600
C284        C  0.09990289  0.36393566  0.41253068     0.81600
C285        C  0.13378874  0.37668332  0.05665547    -0.12000
C286        C  0.13290693  0.39726844  0.08697868    -0.27100
H287        H  0.16146699  0.36918161  0.05130015     0.17100
H288        H  0.10314245  0.40097448  0.09363828     0.17600
C289        C  0.26374294  0.53516102  0.08694239    -0.12000
C290        C  0.24201567  0.53418184  0.05675584    -0.27100
H291        H  0.29732355  0.56497576  0.09343309     0.17100
H292        H  0.20676080  0.50645742  0.05155797     0.17600
C293        C  0.27076929  0.40425642  0.08651268    -0.12000
C294        C  0.29118501  0.42586154  0.05621393    -0.27100
H295        H  0.26726260  0.37080068  0.09304029     0.17100
H296        H  0.29852172  0.46104202  0.05094480     0.17600
C297        C  0.28518767  0.57545005  0.18169547    -0.08800
C298        C  0.26674663  0.53825647  0.16638284    -0.10400
C299        C  0.29029703  0.38303249  0.18129974    -0.08800
C300        C  0.27156885  0.40144437  0.16598509    -0.10400
C301        C  0.13001903  0.39667991  0.16644982    -0.08800
C302        C  0.09287738  0.37804485  0.18175740    -0.10400
C303        C  0.13801168  0.37791587  0.38738520    -0.12000
C304        C  0.13387169  0.38858262  0.35357304    -0.27100
H305        H  0.17044804  0.38245868  0.39761869     0.17100
H306        H  0.10041306  0.38157375  0.34347017     0.17600
C307        C  0.25480228  0.53434071  0.35346812    -0.12000
C308        C  0.23971309  0.53009696  0.38718541    -0.27100
H309        H  0.28143464  0.56782386  0.34346600     0.17100
H310        H  0.21162249  0.49761509  0.39725847     0.17600
C311        C  0.29060913  0.42832444  0.38688130    -0.12000
C312        C  0.27963518  0.41328979  0.35313154    -0.27100
H313        H  0.28635489  0.45645964  0.39706467     0.17100
H314        H  0.28633997  0.38660098  0.34302178     0.17600
C315        C  0.26307454  0.53806681  0.27414062    -0.08800
C316        C  0.28301453  0.57538528  0.25900914    -0.10400
C317        C  0.27459214  0.40503556  0.27379913    -0.08800
C318        C  0.29195289  0.38514088  0.25863390    -0.10400
C319        C  0.13003162  0.39349592  0.27424281    -0.08800
C320        C  0.09277742  0.37630788  0.25908497    -0.10400
C321        C  0.07892628  0.46721468  0.85342752    -0.12000
C322        C  0.09401887  0.47133684  0.88716022    -0.27100
H323        H  0.05217826  0.43377806  0.84338576     0.17100
H324        H  0.12220659  0.50373922  0.89729791     0.17600
C325        C  0.20053770  0.61272252  0.85323503    -0.12000
C326        C  0.19655892  0.62381962  0.88695745    -0.27100
H327        H  0.23382969  0.61918401  0.84316768     0.17100
H328        H  0.16429227  0.61986313  0.89705599     0.17600
C329        C  0.05519162  0.58885412  0.85393509    -0.12000
C330        C  0.04470998  0.57409720  0.88778162    -0.27700
H331        H  0.04811487  0.61528602  0.84386731     0.17100
H332        H  0.04925332  0.54617657  0.89798692     0.17600
C333        C  0.20363405  0.60802731  0.77384040    -0.08800
C334        C  0.24087104  0.62532464  0.75865089    -0.10400
C335        C  0.04190516  0.61690142  0.75922306    -0.08800
C336        C  0.05928402  0.59705982  0.77446899    -0.10400
C337        C  0.07035436  0.46368576  0.77406993    -0.08800
C338        C  0.05044431  0.42640744  0.75886535    -0.10400
C339        C  0.09119416  0.46788278  0.55632176    -0.12000
C340        C  0.06961936  0.46668340  0.58662599    -0.27100
H341        H  0.12637549  0.49570474  0.55108187     0.17100
H342        H  0.03616228  0.43675599  0.59316554     0.17600
C343        C  0.19952740  0.62494659  0.55621084    -0.12000
C344        C  0.20053587  0.60438235  0.58648360    -0.27100
H345        H  0.17182707  0.63243526  0.55094171     0.17100
H346        H  0.23036015  0.60072839  0.59302291     0.17600
C347        C  0.04205369  0.57618700  0.55679374    -0.12000
C348        C  0.06285939  0.59779117  0.58704176    -0.27100
H349        H  0.03440485  0.54089403  0.55150927     0.17100
H350        H  0.06674820  0.63139900  0.59364915     0.17600
C351        C  0.04881842  0.42619815  0.68148982    -0.08800
C352        C  0.06724823  0.46334592  0.66612696    -0.10400
C353        C  0.24126928  0.62340456  0.68129524    -0.08800
C354        C  0.20412872  0.60480891  0.66595654    -0.10400
C355        C  0.06263215  0.60019921  0.66652467    -0.08800
C356        C  0.04389460  0.61858469  0.68185237    -0.10400
C357        C  0.11125018  0.88976206  0.59404956     0.49900
H358        H  0.11118566  0.88984125  0.56472310     0.00900
C359        C  0.11143636  0.88959868  0.66261945     0.50000
H360        H  0.11154680  0.88955524  0.69169623     0.00900
C361        C  0.15984060  0.91632018  0.60982665    -0.12800
C362        C  0.08478210  0.91175557  0.61003986    -0.12500
C363        C  0.08925122  0.84111570  0.60981660    -0.12900
C364        C  0.16080955  0.91587693  0.64596178    -0.12900
C365        C  0.08519130  0.91285386  0.64618423    -0.12500
C366        C  0.08814738  0.84013926  0.64596019    -0.12800
C367        C  0.11115199  0.88969552  0.77747355     0.49900
H368        H  0.11096500  0.88966420  0.74839603     0.00900
C369        C  0.11152044  0.88972967  0.84585894     0.50000
H370        H  0.11168804  0.88976287  0.87476595     0.00900
C371        C  0.16035535  0.91947646  0.79393785    -0.12800
C372        C  0.08151583  0.90907555  0.79424650    -0.12500
C373        C  0.09186509  0.84055834  0.79403975    -0.12900
C374        C  0.15947580  0.92061823  0.83011063    -0.12900
C375        C  0.08058014  0.90688824  0.83042500    -0.12500
C376        C  0.09423492  0.84162777  0.83020567    -0.12800
C377        C  0.33353133  0.66707614  0.68572987     0.49900
H378        H  0.00027351  0.66698340  0.65633192     0.00900
C379        C  0.33325523  0.66730875  0.75481714     0.50000
H380        H  0.33314268  0.66743543  0.78418317     0.00900
C381        C  0.02307259  0.97421854  0.70222049    -0.12800
C382        C  0.02664102  0.71650677  0.70205488    -0.12500
C383        C  0.28430204  0.97773821  0.70199818    -0.12900
C384        C  0.02266056  0.97395820  0.73841796    -0.12900
C385        C  0.02682909  0.71663358  0.73825625    -0.12500
C386        C  0.28415016  0.97811068  0.73819232    -0.12800
C387        C  0.22234228  0.77880800  0.27763875     0.49900
H388        H  0.22225946  0.77880846  0.24856636     0.00900
C389        C  0.22247052  0.77873582  0.34603750     0.50000
H390        H  0.22252498  0.77870932  0.37495692     0.00900
C391        C  0.17330554  0.74884167  0.29428004    -0.12800
C392        C  0.25227838  0.75964387  0.29414423    -0.12500
C393        C  0.24157077  0.82793275  0.29427619    -0.12900
C394        C  0.17443429  0.74762769  0.33044693    -0.12900
C395        C  0.25348501  0.76180168  0.33031718    -0.12500
C396        C  0.23940228  0.82680663  0.33044735    -0.12800
C397        C  0.22236987  0.77889957  0.09429527     0.49900
H398        H  0.22225732  0.77893359  0.06497004     0.00900
C399        C  0.22264555  0.77884952  0.16285960     0.50000
H400        H  0.22279113  0.77885961  0.19193174     0.00900
C401        C  0.17388977  0.75236264  0.11023872    -0.12800
C402        C  0.24896163  0.75687084  0.10998709    -0.12500
C403        C  0.24444705  0.82747766  0.11018255    -0.12900
C404        C  0.17315058  0.75264001  0.14637763    -0.12900
C405        C  0.24876214  0.75562344  0.14612885    -0.12500
C406        C  0.24581948  0.82831833  0.14631532    -0.12800
C407        C  0.00039638  0.66779415  0.18579024     0.49900
H408        H  0.33380606  0.66773893  0.15648730     0.00900
C409        C  0.00018822  0.66793138  0.25488109     0.50000
H410        H  0.00010781  0.66800725  0.28424705     0.00900
C411        C  0.31092588  0.69433440  0.20218484    -0.12800
C412        C  0.30741282  0.95189190  0.20234460    -0.12500
C413        C  0.04961819  0.69065798  0.20232465    -0.12900
C414        C  0.31114278  0.69472171  0.23838306    -0.12900
C415        C  0.30692102  0.95192532  0.23853924    -0.12500
C416        C  0.04953688  0.69039458  0.23851822    -0.12800
Zn417      Zn  0.33370483  0.66732902  0.92065400     1.49700
Zn418      Zn  0.02041701  0.95826419  0.98700909     1.49400
Zn419      Zn  0.04280539  0.73089545  0.98682693     1.49100
Zn420      Zn  0.27045363  0.98066414  0.98666963     1.49500
O421        O  0.33349100  0.66759769  0.97109173    -1.79700
O422        O  0.01988191  0.96016640  0.90055324    -0.70300
O423        O  0.07808927  0.65816287  0.01649141    -0.70100
O424        O  0.07632278  0.77440109  0.94548738    -0.69600
O425        O  0.03092430  0.92468000  0.94589509    -0.70300
O426        O  0.04107498  0.72734431  0.90024170    -0.69900
O427        O  0.08768279  0.72930558  0.02097913    -0.70500
O428        O  0.27218148  0.69412975  0.02059315    -0.69900
O429        O  0.30690056  0.91345621  0.02102452    -0.70600
O430        O  0.34312728  0.75585038  0.01595496    -0.70000
O431        O  0.24539052  0.92289127  0.01618290    -0.70500
O432        O  0.22701011  0.97039738  0.94528239    -0.70400
O433        O  0.27377559  0.98129736  0.90010846    -0.70200
C434        C  0.03048258  0.93141326  0.91275192     0.81600
C435        C  0.09797180  0.69867287  0.02989230     0.82100
C436        C  0.06974638  0.76687180  0.91235288     0.81000
C437        C  0.30270813  0.73519030  0.02940643     0.81400
C438        C  0.26595401  0.90313621  0.02980929     0.82600
C439        C  0.23441208  0.97087984  0.91217459     0.81600
Zn440      Zn  0.06286982  0.68756718  0.48679138     1.49700
Zn441      Zn  0.29105701  0.93815329  0.48685004     1.49400
Zn442      Zn  0.31309199  0.71015287  0.48667987     1.49100
Zn443      Zn  0.00011257  0.66746902  0.42043617     1.49500
O444        O  0.99992828  0.66739399  0.47086797    -1.79700
O445        O  0.06155915  0.97490631  0.52094319    -0.70300
O446        O  0.24619159  0.94001522  0.52077833    -0.70100
O447        O  0.02624042  0.75502753  0.52052555    -0.69600
O448        O  0.99053520  0.91332776  0.51622872    -0.70300
O449        O  0.08780518  0.74562606  0.51585778    -0.69900
O450        O  0.25538396  0.01092502  0.51588075    -0.70500
O451        O  0.31464843  0.70849470  0.40011089    -0.69900
O452        O  0.25747573  0.89437898  0.44568431    -0.70600
O453        O  0.30310638  0.74375551  0.44544239    -0.70000
O454        O  0.29285844  0.94108035  0.40036018    -0.70500
O455        O  0.06007611  0.68625247  0.40025974    -0.70400
O456        O  0.10670187  0.69771114  0.44565108    -0.70200
C457        C  0.03092157  0.93391906  0.52976411     0.81600
C458        C  0.23566937  0.97055132  0.52948380     0.82100
C459        C  0.06722591  0.76547238  0.52931195     0.81000
C460        C  0.30393781  0.73721638  0.41229721     0.81400
C461        C  0.26405745  0.90168380  0.41255139     0.82600
C462        C  0.09945614  0.69697223  0.41249475     0.81600
C463        C  0.13362106  0.71054389  0.05673376    -0.12000
C464        C  0.13278268  0.73111447  0.08706778    -0.27100
H465        H  0.16120950  0.70290264  0.05139996     0.17100
H466        H  0.10308344  0.73492410  0.09374252     0.17600
C467        C  0.26395517  0.86856567  0.08697621    -0.12000
C468        C  0.24220285  0.86765163  0.05681575    -0.27100
H469        H  0.29760024  0.89830786  0.09343219     0.17100
H470        H  0.20689178  0.84001180  0.05167241     0.17600
C471        C  0.27035343  0.73733888  0.08661799    -0.12000
C472        C  0.29079388  0.75892333  0.05631589    -0.27100
H473        H  0.26679627  0.70386617  0.09315828     0.17100
H474        H  0.29820450  0.79413136  0.05106384     0.17600
C475        C  0.28540052  0.90883905  0.18176065    -0.08800
C476        C  0.26691308  0.87166456  0.16643852    -0.10400
C477        C  0.28995516  0.71628683  0.18147703    -0.08800
C478        C  0.27121548  0.73466122  0.16612737    -0.10400
C479        C  0.12985817  0.73032613  0.16652612    -0.08800
C480        C  0.09268835  0.71162568  0.18179807    -0.10400
C481        C  0.13758994  0.71105168  0.38735725    -0.12000
C482        C  0.13350569  0.72189644  0.35358663    -0.27100
H483        H  0.17001999  0.71556126  0.39757810     0.17100
H484        H  0.10006374  0.71493997  0.34348376     0.17600
C485        C  0.25476117  0.86775725  0.35360565    -0.12000
C486        C  0.23984596  0.86360885  0.38736987    -0.27100
H487        H  0.28136717  0.90121339  0.34354331     0.17100
H488        H  0.21178484  0.83117265  0.39752862     0.17600
C489        C  0.29005261  0.76138816  0.38713921    -0.12000
C490        C  0.27912677  0.74642719  0.35336488    -0.27100
H491        H  0.28575732  0.78948093  0.39736091     0.17100
H492        H  0.28587062  0.71977576  0.34323048     0.17600
C493        C  0.26309283  0.87149770  0.27426007    -0.08800
C494        C  0.28311742  0.90880870  0.25909511    -0.10400
C495        C  0.27429901  0.73827634  0.27400998    -0.08800
C496        C  0.29166295  0.71838031  0.25883542    -0.10400
C497        C  0.12981009  0.72693347  0.27426954    -0.08800
C498        C  0.09254947  0.70972046  0.25911060    -0.10400
C499        C  0.07880374  0.80065222  0.85334471    -0.12000
C500        C  0.09386885  0.80481750  0.88709117    -0.27100
H501        H  0.05202655  0.76721856  0.84332072     0.17100
H502        H  0.12209290  0.83720963  0.89720909     0.17600
C503        C  0.20051567  0.94607451  0.85318330    -0.12000
C504        C  0.19649649  0.95710041  0.88691970    -0.27100
H505        H  0.23382385  0.95256939  0.84312785     0.17100
H506        H  0.16422470  0.95312505  0.89702046     0.17600
C507        C  0.05519432  0.92229530  0.85374237    -0.12000
C508        C  0.04456670  0.90740716  0.88755006    -0.27700
H509        H  0.04825327  0.94883559  0.84371150     0.17100
H510        H  0.04898258  0.87938275  0.89769995     0.17600
C511        C  0.20374099  0.94139905  0.77379069    -0.08800
C512        C  0.24100384  0.95869912  0.75863134    -0.10400
C513        C  0.04208609  0.95040558  0.75906993    -0.08800
C514        C  0.05943862  0.93053762  0.77429393    -0.10400
C515        C  0.07031352  0.79707296  0.77395578    -0.08800
C516        C  0.05039627  0.75978656  0.75875430    -0.10400
C517        C  0.09102274  0.80115477  0.55617926    -0.12000
C518        C  0.06955170  0.80009821  0.58650609    -0.27100
H519        H  0.12622029  0.82890394  0.55088463     0.17100
H520        H  0.03608037  0.77022590  0.59309882     0.17600
C521        C  0.20001421  0.95864115  0.55637571    -0.12000
C522        C  0.20084714  0.93779795  0.58655210    -0.27100
H523        H  0.17240259  0.96628350  0.55117793     0.17100
H524        H  0.23057168  0.93395691  0.59305127     0.17600
C525        C  0.04270199  0.91005272  0.55662337    -0.12000
C526        C  0.06341839  0.93154695  0.58691675    -0.27100
H527        H  0.03502363  0.87476188  0.55128634     0.17100
H528        H  0.06730705  0.96513953  0.59358182     0.17600
C529        C  0.04874133  0.75952016  0.68136661    -0.08800
C530        C  0.06717832  0.79668318  0.66600514    -0.10400
C531        C  0.24136272  0.95679187  0.68130370    -0.08800
C532        C  0.20420767  0.93814616  0.66599580    -0.10400
C533        C  0.06285837  0.93376629  0.66639449    -0.08800
C534        C  0.04411691  0.95217171  0.68170996    -0.10400
C535        C  0.44442137  0.22323602  0.59413268     0.49900
H536        H  0.44428010  0.22331283  0.56480629     0.00900
C537        C  0.44473342  0.22303544  0.66270189     0.50000
H538        H  0.44489403  0.22298112  0.69178145     0.00900
C539        C  0.49303160  0.25000265  0.60985736    -0.12800
C540        C  0.41776110  0.24497837  0.61018557    -0.12500
C541        C  0.42268528  0.17460290  0.60989071    -0.12900
C542        C  0.49406573  0.24951095  0.64599576    -0.12900
C543        C  0.41827023  0.24608328  0.64632645    -0.12500
C544        C  0.42160345  0.17359921  0.64603156    -0.12800
C545        C  0.44441243  0.22298831  0.77759018     0.49900
H546        H  0.44421519  0.22298277  0.74851010     0.00900
C547        C  0.44480481  0.22296153  0.84598061     0.50000
H548        H  0.44497518  0.22297002  0.87489206     0.00900
C549        C  0.49359858  0.25285766  0.79405121    -0.12800
C550        C  0.41467420  0.24222321  0.79439403    -0.12500
C551        C  0.42526080  0.17385807  0.79412500    -0.12900
C552        C  0.49273538  0.25397066  0.83022647    -0.12900
C553        C  0.41374432  0.23999310  0.83056848    -0.12500
C554        C  0.42765211  0.17489745  0.83029048    -0.12800
C555        C  0.66696174  0.00059489  0.68567472     0.49900
H556        H  0.33371098  0.00043575  0.65629961     0.00900
C557        C  0.66672162  0.00076260  0.75476223     0.50000
H558        H  0.66662782  0.00085740  0.78412851     0.00900
C559        C  0.35616171  0.30731139  0.70242989    -0.12800
C560        C  0.36007331  0.04991951  0.70205204    -0.12500
C561        C  0.61751561  0.31114426  0.70208554    -0.12900
C562        C  0.35575894  0.30708802  0.73862403    -0.12900
C563        C  0.36026977  0.05001118  0.73825288    -0.12500
C564        C  0.61735264  0.31150958  0.73828150    -0.12800
C565        C  0.55591354  0.11232743  0.27755710     0.49900
H566        H  0.55574220  0.11232020  0.24848666     0.00900
C567        C  0.55624995  0.11231431  0.34595401     0.50000
H568        H  0.55640813  0.11233167  0.37487398     0.00900
C569        C  0.50693967  0.08233117  0.29427237    -0.12800
C570        C  0.58594693  0.09323803  0.29398749    -0.12500
C571        C  0.57511649  0.16143955  0.29419823    -0.12900
C572        C  0.50817698  0.08116089  0.33043659    -0.12900
C573        C  0.58728137  0.09544690  0.33015503    -0.12500
C574        C  0.57304265  0.16034477  0.33036790    -0.12800
C575        C  0.55574768  0.11223143  0.09424753     0.49900
H576        H  0.55556260  0.11226677  0.06492146     0.00900
C577        C  0.55618045  0.11216155  0.16281243     0.50000
H578        H  0.55639126  0.11215499  0.19188214     0.00900
C579        C  0.50730681  0.08563395  0.11024878    -0.12800
C580        C  0.58243358  0.09026426  0.10986974    -0.12500
C581        C  0.57780466  0.16079839  0.11015618    -0.12900
C582        C  0.50665514  0.08590711  0.14638921    -0.12900
C583        C  0.58231132  0.08899543  0.14600953    -0.12500
C584        C  0.57925454  0.16163317  0.14628393    -0.12800
C585        C  0.33399704  0.00115369  0.18584617     0.49900
H586        H  0.66731795  0.00094815  0.15646579     0.00900
C587        C  0.33374240  0.00134979  0.25493629     0.50000
H588        H  0.33364157  0.00145806  0.28430208     0.00900
C589        C  0.64443322  0.02766488  0.20207796    -0.12800
C590        C  0.64072568  0.28526112  0.20225068    -0.12500
C591        C  0.38320060  0.02399743  0.20240262    -0.12900
C592        C  0.64461711  0.02811326  0.23827521    -0.12900
C593        C  0.64025548  0.28531407  0.23844161    -0.12500
C594        C  0.38310149  0.02377910  0.23859535    -0.12800
Zn595      Zn  0.66704649  0.00073022  0.92065280     1.49700
Zn596      Zn  0.35360853  0.29137791  0.98708705     1.49400
Zn597      Zn  0.37620281  0.06412969  0.98683256     1.49100
Zn598      Zn  0.60390840  0.31402482  0.98671865     1.49500
O599        O  0.66684406  0.00092777  0.97108439    -1.79700
O600        O  0.35288447  0.29307201  0.90066217    -0.70300
O601        O  0.41139808  0.99135467  0.01649640    -0.70100
O602        O  0.40990544  0.10760843  0.94552446    -0.69600
O603        O  0.36406285  0.25770576  0.94602468    -0.70300
O604        O  0.37441950  0.06064629  0.90028097    -0.69900
O605        O  0.42094080  0.06246266  0.02108763    -0.70500
O606        O  0.60554412  0.02766699  0.02038259    -0.69900
O607        O  0.64020289  0.24673688  0.02107196    -0.70600
O608        O  0.67660427  0.08925024  0.01590282    -0.70000
O609        O  0.57873494  0.25623085  0.01618983    -0.70500
O610        O  0.56043335  0.30381309  0.94537055    -0.70400
O611        O  0.60710309  0.31459295  0.90015742    -0.70200
C612        C  0.36353364  0.26435802  0.91287823     0.81600
C613        C  0.43123512  0.03182600  0.02997128     0.82100
C614        C  0.40323848  0.10012105  0.91239273     0.81000
C615        C  0.63612158  0.06868395  0.02924108     0.81400
C616        C  0.59926150  0.23645410  0.02983469     0.82600
C617        C  0.56776894  0.30423442  0.91225714     0.81600
Zn618      Zn  0.39675215  0.02136527  0.48682822     1.49700
Zn619      Zn  0.62399617  0.27147776  0.48685865     1.49400
Zn620      Zn  0.64654075  0.04371294  0.48653565     1.49100
Zn621      Zn  0.33396366  0.00112557  0.42045912     1.49500
O622        O  0.33379164  0.00113477  0.47090214    -1.79700
O623        O  0.39440174  0.30774732  0.52106823    -0.70300
O624        O  0.57903754  0.27343160  0.52064791    -0.70100
O625        O  0.36009936  0.08881769  0.52047814    -0.69600
O626        O  0.32333983  0.24623304  0.51630268    -0.70300
O627        O  0.42163691  0.07935029  0.51595797    -0.69900
O628        O  0.58846132  0.34444013  0.51580223    -0.70500
O629        O  0.64854301  0.04222543  0.39992083    -0.69900
O630        O  0.59057476  0.22771081  0.44562411    -0.70600
O631        O  0.63671245  0.07732707  0.44522851    -0.70000
O632        O  0.62602612  0.27450092  0.40035525    -0.70500
O633        O  0.39394510  0.01996371  0.40032320    -0.70400
O634        O  0.44061622  0.03160307  0.44571849    -0.70200
C635        C  0.36368728  0.26679635  0.52990958     0.81600
C636        C  0.56861730  0.30403859  0.52936436     0.82100
C637        C  0.40104810  0.09922426  0.52934026     0.81000
C638        C  0.63777802  0.07091938  0.41208326     0.81400
C639        C  0.59723640  0.23507393  0.41249815     0.82600
C640        C  0.43334649  0.03077765  0.41256367     0.81600
C641        C  0.46688582  0.04367541  0.05682184    -0.12000
C642        C  0.46614202  0.06435165  0.08712882    -0.27100
H643        H  0.49444510  0.03598974  0.05149256     0.17100
H644        H  0.43649093  0.06824012  0.09380802     0.17600
C645        C  0.59726625  0.20189677  0.08697757    -0.12000
C646        C  0.57548458  0.20099493  0.05684291    -0.27100
H647        H  0.63092914  0.23162600  0.09341566     0.17100
H648        H  0.54016485  0.17336666  0.05170912     0.17600
C649        C  0.60383176  0.07080428  0.08644927    -0.12000
C650        C  0.62420888  0.09241521  0.05614140    -0.27100
H651        H  0.60033861  0.03735120  0.09296525     0.17100
H652        H  0.63155945  0.12760416  0.05089106     0.17600
C653        C  0.61874928  0.24218848  0.18168634    -0.08800
C654        C  0.60030627  0.20498573  0.16640206    -0.10400
C655        C  0.62352222  0.04962661  0.18130495    -0.08800
C656        C  0.60480202  0.06801979  0.16595044    -0.10400
C657        C  0.46341682  0.06359494  0.16659046    -0.08800
C658        C  0.42627010  0.04491999  0.18188681    -0.10400
C659        C  0.47146150  0.04482599  0.38742616    -0.12000
C660        C  0.46730815  0.05552788  0.35363297    -0.27100
H661        H  0.50390490  0.04937721  0.39765059     0.17100
H662        H  0.43384533  0.04852425  0.34354311     0.17600
C663        C  0.58825043  0.20126471  0.35353363    -0.12000
C664        C  0.57317403  0.19703626  0.38726088    -0.27100
H665        H  0.61485201  0.23475285  0.34351648     0.17100
H666        H  0.54511540  0.16454730  0.39735196     0.17600
C667        C  0.62404664  0.09517888  0.38689430    -0.12000
C668        C  0.61305074  0.08016374  0.35314047    -0.27100
H669        H  0.61979946  0.12330875  0.39709917     0.17100
H670        H  0.61973683  0.05346945  0.34301476     0.17600
C671        C  0.59651630  0.20495932  0.27417784    -0.08800
C672        C  0.61648625  0.24223878  0.25899916    -0.10400
C673        C  0.60788715  0.07183183  0.27381123    -0.08800
C674        C  0.62518797  0.05186676  0.25865654    -0.10400
C675        C  0.46339171  0.06039413  0.27432767    -0.08800
C676        C  0.42611009  0.04314581  0.25919673    -0.10400
C677        C  0.41232065  0.13391034  0.85339401    -0.12000
C678        C  0.42739693  0.13806797  0.88713552    -0.27100
H679        H  0.38556887  0.10047227  0.84335732     0.17100
H680        H  0.45560498  0.17047149  0.89725541     0.17600
C681        C  0.53379230  0.27946357  0.85328147    -0.12000
C682        C  0.52979899  0.29042758  0.88704100    -0.27100
H683        H  0.56711124  0.28604646  0.84318298     0.17100
H684        H  0.49750902  0.28635937  0.89718700     0.17600
C685        C  0.38824935  0.25526205  0.85388560    -0.12000
C686        C  0.37764124  0.24035980  0.88768770    -0.27700
H687        H  0.38121811  0.28174179  0.84385593     0.17100
H688        H  0.38216899  0.21240562  0.89784395     0.17600
C689        C  0.53696631  0.27482522  0.77389210    -0.08800
C690        C  0.57421332  0.29212797  0.75871628    -0.10400
C691        C  0.37515492  0.28351491  0.75928558    -0.08800
C692        C  0.39252998  0.26364627  0.77447741    -0.10400
C693        C  0.40375515  0.13039848  0.77401328    -0.08800
C694        C  0.38384787  0.09313724  0.75877906    -0.10400
C695        C  0.42474882  0.13484840  0.55624957    -0.12000
C696        C  0.40319089  0.13361994  0.58656914    -0.27100
H697        H  0.45989591  0.16271883  0.55097587     0.17100
H698        H  0.36977457  0.10364639  0.59312628     0.17600
C699        C  0.53298706  0.29218650  0.55627285    -0.12000
C700        C  0.53399286  0.27157923  0.58653336    -0.27100
H701        H  0.50525337  0.29962807  0.55101088     0.17100
H702        H  0.56383602  0.26795040  0.59305601     0.17600
C703        C  0.37536661  0.24295413  0.55686471    -0.12000
C704        C  0.39614060  0.26455798  0.58711546    -0.27100
H705        H  0.36775088  0.20767308  0.55157281     0.17100
H706        H  0.40001410  0.29815951  0.59372413     0.17600
C707        C  0.38218951  0.09295432  0.68139387    -0.08800
C708        C  0.40065487  0.13013388  0.66605854    -0.10400
C709        C  0.57460175  0.29031687  0.68136369    -0.08800
C710        C  0.53747814  0.27176421  0.66601223    -0.10400
C711        C  0.39588779  0.26686394  0.66659104    -0.08800
C712        C  0.37715115  0.28522912  0.68193985    -0.10400
C713        C  0.44435872  0.55632483  0.59412735     0.49900
H714        H  0.44417123  0.55636173  0.56480154     0.00900
C715        C  0.44478673  0.55623725  0.66269582     0.50000
H716        H  0.44499448  0.55621874  0.69177531     0.00900
C717        C  0.49299434  0.58308801  0.60981395    -0.12800
C718        C  0.41773722  0.57810769  0.61018345    -0.12500
C719        C  0.42263532  0.50771751  0.60991397    -0.12900
C720        C  0.49409465  0.58266631  0.64595079    -0.12900
C721        C  0.41830941  0.57928283  0.64632533    -0.12500
C722        C  0.42162884  0.50677904  0.64605642    -0.12800
C723        C  0.44449009  0.55638069  0.77759530     0.49900
H724        H  0.44424922  0.55636547  0.74851541     0.00900
C725        C  0.44497547  0.55635910  0.84598580     0.50000
H726        H  0.44520033  0.55635841  0.87489614     0.00900
C727        C  0.49370366  0.58622488  0.79401570    -0.12800
C728        C  0.41480097  0.57565610  0.79443266    -0.12500
C729        C  0.42534068  0.50725439  0.79413695    -0.12900
C730        C  0.49288678  0.58733751  0.83019046    -0.12900
C731        C  0.41393228  0.57344424  0.83061429    -0.12500
C732        C  0.42776841  0.50828821  0.83029658    -0.12800
C733        C  0.66683575  0.33385098  0.68576970     0.49900
H734        H  0.33367730  0.33374799  0.65644227     0.00900
C735        C  0.66659703  0.33403786  0.75485803     0.50000
H736        H  0.66650356  0.33414645  0.78422421     0.00900
C737        C  0.35622102  0.64062266  0.70237638    -0.12800
C738        C  0.36013777  0.38323424  0.70217590    -0.12500
C739        C  0.61760370  0.64452866  0.70200627    -0.12900
C740        C  0.35579884  0.64041569  0.73857433    -0.12900
C741        C  0.36031890  0.38335927  0.73837341    -0.12500
C742        C  0.61742967  0.64491429  0.73820323    -0.12800
C743        C  0.55578374  0.44542742  0.27751672     0.49900
H744        H  0.55561972  0.44540762  0.24844472     0.00900
C745        C  0.55608780  0.44541107  0.34591389     0.50000
H746        H  0.55624264  0.44542774  0.37483440     0.00900
C747        C  0.50682394  0.41532106  0.29423052    -0.12800
C748        C  0.58591751  0.42646720  0.29395924    -0.12500
C749        C  0.57485989  0.49452918  0.29414562    -0.12900
C750        C  0.50804329  0.41413632  0.33040009    -0.12900
C751        C  0.58723140  0.42867742  0.33012419    -0.12500
C752        C  0.57275684  0.49342162  0.33031544    -0.12800
C753        C  0.55580405  0.44544771  0.09417765     0.49900
H754        H  0.55568777  0.44546505  0.06485144     0.00900
C755        C  0.55610432  0.44543041  0.16274642     0.50000
H756        H  0.55625793  0.44544761  0.19181814     0.00900
C757        C  0.50733724  0.41874914  0.11013006    -0.12800
C758        C  0.58254624  0.42358822  0.10987769    -0.12500
C759        C  0.57772866  0.49402620  0.11006602    -0.12900
C760        C  0.50661899  0.41906623  0.14627146    -0.12900
C761        C  0.58235963  0.42235392  0.14601472    -0.12500
C762        C  0.57910456  0.49488357  0.14619870    -0.12800
C763        C  0.33396344  0.33443074  0.18574100     0.49900
H764        H  0.66741517  0.33441180  0.15638860     0.00900
C765        C  0.33375152  0.33459849  0.25483275     0.50000
H766        H  0.33366546  0.33468612  0.28419903     0.00900
C767        C  0.64459155  0.36113613  0.20203937    -0.12800
C768        C  0.64045326  0.61847176  0.20223337    -0.12500
C769        C  0.38317138  0.35721422  0.20228187    -0.12900
C770        C  0.64479838  0.36157073  0.23823324    -0.12900
C771        C  0.63998301  0.61848741  0.23842682    -0.12500
C772        C  0.38308569  0.35697104  0.23847599    -0.12800
Zn773      Zn  0.66701194  0.33396513  0.92063673     1.49700
Zn774      Zn  0.35362826  0.62485845  0.98714942     1.49400
Zn775      Zn  0.37637765  0.39740491  0.98680260     1.49100
Zn776      Zn  0.60384145  0.64733305  0.98668706     1.49500
O777        O  0.66693283  0.33421390  0.97107161    -1.79700
O778        O  0.35315562  0.62662725  0.90072086    -0.70300
O779        O  0.41133708  0.32437937  0.01647290    -0.70100
O780        O  0.40992828  0.44090722  0.94548353    -0.69600
O781        O  0.36427308  0.59127431  0.94611782    -0.70300
O782        O  0.37467953  0.39389578  0.90021729    -0.69900
O783        O  0.42125488  0.39565900  0.02084760    -0.70500
O784        O  0.60574937  0.36096905  0.02048405    -0.69900
O785        O  0.64028388  0.58019549  0.02104782    -0.70600
O786        O  0.67683364  0.42251279  0.01598941    -0.70000
O787        O  0.57866761  0.58941405  0.01604316    -0.70500
O788        O  0.56047976  0.63720970  0.94529856    -0.70400
O789        O  0.60724102  0.64807116  0.90012561    -0.70200
C790        C  0.36384259  0.59795783  0.91296719     0.81600
C791        C  0.43139806  0.36493754  0.02980321     0.82100
C792        C  0.40338661  0.43340467  0.91234660     0.81000
C793        C  0.63636384  0.40196873  0.02935311     0.81400
C794        C  0.59926754  0.56973384  0.02972806     0.82600
C795        C  0.56788340  0.63767990  0.91219343     0.81600
Zn796      Zn  0.39648748  0.35438931  0.48683600     1.49700
Zn797      Zn  0.62384446  0.60449004  0.48678705     1.49400
Zn798      Zn  0.64650710  0.37721615  0.48654744     1.49100
Zn799      Zn  0.33388030  0.33434559  0.42045990     1.49500
O800        O  0.33356978  0.33427384  0.47089112    -1.79700
O801        O  0.39428796  0.64081889  0.52107636    -0.70300
O802        O  0.57887464  0.60642925  0.52054520    -0.70100
O803        O  0.35993407  0.42195564  0.52048725    -0.69600
O804        O  0.32323727  0.57929640  0.51630219    -0.70300
O805        O  0.42142491  0.41241484  0.51593529    -0.69900
O806        O  0.58835900  0.67747602  0.51580558    -0.70500
O807        O  0.64850797  0.37561770  0.39997080    -0.69900
O808        O  0.59037085  0.56072497  0.44557229    -0.70600
O809        O  0.63675007  0.41084746  0.44522217    -0.70000
O810        O  0.62570829  0.60755357  0.40030462    -0.70500
O811        O  0.39386668  0.35318272  0.40033664    -0.70400
O812        O  0.44041633  0.36450301  0.44574216    -0.70200
C813        C  0.36358480  0.59986314  0.52991317     0.81600
C814        C  0.56847355  0.63703810  0.52929720     0.82100
C815        C  0.40086897  0.43230951  0.52934401     0.81000
C816        C  0.63778680  0.40436277  0.41208802     0.81400
C817        C  0.59695620  0.56811159  0.41244630     0.82600
C818        C  0.43321592  0.36381834  0.41258112     0.81600
C819        C  0.46706428  0.37678831  0.05663821    -0.12000
C820        C  0.46620832  0.39735058  0.08697701    -0.27100
H821        H  0.49471659  0.36925387  0.05126628     0.17100
H822        H  0.43646275  0.40107775  0.09366071     0.17600
C823        C  0.59718393  0.53512188  0.08687615    -0.12000
C824        C  0.57548918  0.53417868  0.05668079    -0.27100
H825        H  0.63076600  0.56492226  0.09338489     0.17100
H826        H  0.54022911  0.50647382  0.05147041     0.17600
C827        C  0.60400094  0.40411346  0.08652986    -0.12000
C828        C  0.62448549  0.42573244  0.05625401    -0.27100
H829        H  0.60042487  0.37062761  0.09305339     0.17100
H830        H  0.63188570  0.46093753  0.05100334     0.17600
C831        C  0.61847843  0.57542002  0.18163699    -0.08800
C832        C  0.60007047  0.53823850  0.16631867    -0.10400
C833        C  0.62364325  0.38308586  0.18131252    -0.08800
C834        C  0.60487710  0.40145142  0.16599509    -0.10400
C835        C  0.46335831  0.39673758  0.16644250    -0.08800
C836        C  0.42622233  0.37808775  0.18175097    -0.10400
C837        C  0.47134524  0.37783466  0.38743875    -0.12000
C838        C  0.46717610  0.38842549  0.35360622    -0.27100
H839        H  0.50381299  0.38247725  0.39768835     0.17100
H840        H  0.43368653  0.38130089  0.34348897     0.17600
C841        C  0.58789617  0.53433340  0.35347192    -0.12000
C842        C  0.57286106  0.53008209  0.38720993    -0.27100
H843        H  0.61445163  0.56783845  0.34344654     0.17100
H844        H  0.54484571  0.49757364  0.39731335     0.17600
C845        C  0.62406349  0.42858008  0.38685784    -0.12000
C846        C  0.61307004  0.41349769  0.35312017    -0.27100
H847        H  0.61979010  0.45671432  0.39701863     0.17100
H848        H  0.61978115  0.38680548  0.34302749     0.17600
C849        C  0.59624298  0.53806859  0.27412526    -0.08800
C850        C  0.61621137  0.57537307  0.25896403    -0.10400
C851        C  0.60796104  0.40515979  0.27379584    -0.08800
C852        C  0.62533219  0.38526612  0.25863920    -0.10400
C853        C  0.46330479  0.39339236  0.27426507    -0.08800
C854        C  0.42606893  0.37622428  0.25908381    -0.10400
C855        C  0.41244593  0.46727758  0.85338218    -0.12000
C856        C  0.42753836  0.47138814  0.88711239    -0.27100
H857        H  0.38568827  0.43384708  0.84333802     0.17100
H858        H  0.45572969  0.50378796  0.89725220     0.17600
C859        C  0.53395651  0.61283821  0.85322098    -0.12000
C860        C  0.52996115  0.62389677  0.88694872    -0.27100
H861        H  0.56725692  0.61933113  0.84314829     0.17100
H862        H  0.49768344  0.61990643  0.89705337     0.17600
C863        C  0.38853587  0.58879575  0.85396975    -0.12000
C864        C  0.37804625  0.57400416  0.88780801    -0.27700
H865        H  0.38142327  0.61520841  0.84391364     0.17100
H866        H  0.38263309  0.54610497  0.89800239     0.17600
C867        C  0.53704630  0.60819018  0.77382435    -0.08800
C868        C  0.57428299  0.62550373  0.75863203    -0.10400
C869        C  0.37523904  0.61690233  0.75927975    -0.08800
C870        C  0.39263329  0.59707462  0.77451836    -0.10400
C871        C  0.40384261  0.46379249  0.77404433    -0.08800
C872        C  0.38392745  0.42650214  0.75886156    -0.10400
C873        C  0.42460753  0.46791444  0.55626460    -0.12000
C874        C  0.40309973  0.46670360  0.58661076    -0.27100
H875        H  0.45975068  0.49577668  0.55096823     0.17100
H876        H  0.36968678  0.43674132  0.59319208     0.17600
C877        C  0.53284409  0.62516187  0.55619150    -0.12000
C878        C  0.53390913  0.60460999  0.58645835    -0.27100
H879        H  0.50509567  0.63258276  0.55093284     0.17100
H880        H  0.56377410  0.60101500  0.59297444     0.17600
C881        C  0.37527774  0.57603143  0.55687471    -0.12000
C882        C  0.39609842  0.59766651  0.58710795    -0.27100
H883        H  0.36763639  0.54073807  0.55160223     0.17100
H884        H  0.39999888  0.63128426  0.59369675     0.17600
C885        C  0.38231045  0.42622513  0.68149296    -0.08800
C886        C  0.40075813  0.46336398  0.66611845    -0.10400
C887        C  0.57468463  0.62360128  0.68127336    -0.08800
C888        C  0.53754651  0.60497451  0.66593221    -0.10400
C889        C  0.39597950  0.60013803  0.66658737    -0.08800
C890        C  0.37725322  0.61854238  0.68191208    -0.10400
C891        C  0.44456163  0.88967278  0.59406215     0.49900
H892        H  0.44445258  0.88968819  0.56473616     0.00900
C893        C  0.44482795  0.88960275  0.66263149     0.50000
H894        H  0.44497586  0.88960129  0.69171075     0.00900
C895        C  0.49316270  0.91637157  0.60979903    -0.12800
C896        C  0.41800674  0.91157615  0.61005072    -0.12500
C897        C  0.42271169  0.84106203  0.60986718    -0.12900
C898        C  0.49417568  0.91596406  0.64593668    -0.12900
C899        C  0.41846953  0.91273448  0.64619519    -0.12500
C900        C  0.42161944  0.84012592  0.64600835    -0.12800
C901        C  0.44449684  0.88965468  0.77751678     0.49900
H902        H  0.44428721  0.88962905  0.74843695     0.00900
C903        C  0.44491338  0.88966667  0.84590292     0.50000
H904        H  0.44510748  0.88968720  0.87480961     0.00900
C905        C  0.49370879  0.91943528  0.79396364    -0.12800
C906        C  0.41486951  0.90902662  0.79431568    -0.12500
C907        C  0.42522891  0.84051611  0.79407266    -0.12900
C908        C  0.49285577  0.92055843  0.83013667    -0.12900
C909        C  0.41396408  0.90683852  0.83049747    -0.12500
C910        C  0.42762603  0.84157093  0.83023653    -0.12800
C911        C  0.66693993  0.66727608  0.68570906     0.49900
H912        H  0.33364788  0.66695532  0.65636230     0.00900
C913        C  0.66667141  0.66748301  0.75479597     0.50000
H914        H  0.66655955  0.66759745  0.78416185     0.00900
C915        C  0.35636148  0.97408677  0.70225569    -0.12800
C916        C  0.35999150  0.71648177  0.70208841    -0.12500
C917        C  0.61763888  0.97782836  0.70199481    -0.12900
C918        C  0.35595798  0.97384573  0.73845506    -0.12900
C919        C  0.36015160  0.71660485  0.73828836    -0.12500
C920        C  0.61747441  0.97818569  0.73818948    -0.12800
C921        C  0.55564089  0.77877962  0.27760182     0.49900
H922        H  0.55549839  0.77877922  0.24852910     0.00900
C923        C  0.55589196  0.77871814  0.34600115     0.50000
H924        H  0.55600157  0.77869094  0.37492229     0.00900
C925        C  0.50665182  0.74876038  0.29429348    -0.12800
C926        C  0.58566714  0.75969219  0.29405040    -0.12500
C927        C  0.57482148  0.82788925  0.29424661    -0.12900
C928        C  0.50784001  0.74755620  0.33045876    -0.12900
C929        C  0.58695236  0.76187490  0.33022057    -0.12500
C930        C  0.57270734  0.82676604  0.33041716    -0.12800
C931        C  0.55557384  0.77886586  0.09425128     0.49900
H932        H  0.55542574  0.77890976  0.06492526     0.00900
C933        C  0.55593906  0.77878605  0.16281683     0.50000
H934        H  0.55612699  0.77878155  0.19188906     0.00900
C935        C  0.50711825  0.75229023  0.11023108    -0.12800
C936        C  0.58220327  0.75685170  0.10989479    -0.12500
C937        C  0.57764136  0.82743524  0.11015824    -0.12900
C938        C  0.50642533  0.75256501  0.14637118    -0.12900
C939        C  0.58205522  0.75559235  0.14603440    -0.12500
C940        C  0.57906330  0.82825719  0.14628918    -0.12800
C941        C  0.33373157  0.66779979  0.18585517     0.49900
H942        H  0.66711931  0.66766407  0.15639420     0.00900
C943        C  0.33354265  0.66789226  0.25494647     0.50000
H944        H  0.33346944  0.66794245  0.28431283     0.00900
C945        C  0.64425603  0.69432041  0.20206055    -0.12800
C946        C  0.64061331  0.95181209  0.20233386    -0.12500
C947        C  0.38295438  0.69063289  0.20238403    -0.12900
C948        C  0.64446503  0.69473426  0.23825854    -0.12900
C949        C  0.64011284  0.95185541  0.23852683    -0.12500
C950        C  0.38287833  0.69034989  0.23857703    -0.12800
Zn951      Zn  0.66713193  0.66750670  0.92063404     1.49700
Zn952      Zn  0.35372680  0.95825541  0.98707764     1.49400
Zn953      Zn  0.37613852  0.73079470  0.98683475     1.49100
Zn954      Zn  0.60379429  0.98071196  0.98668389     1.49500
O955        O  0.66691266  0.66771513  0.97106418    -1.79700
O956        O  0.35312690  0.96003631  0.90061292    -0.70300
O957        O  0.41126799  0.65793874  0.01655800    -0.70100
O958        O  0.40968571  0.77430796  0.94549851    -0.69600
O959        O  0.36436743  0.92473459  0.94598934    -0.70300
O960        O  0.37448276  0.72725294  0.90024413    -0.69900
O961        O  0.42099343  0.72914160  0.02095798    -0.70500
O962        O  0.60551263  0.69415421  0.02050795    -0.69900
O963        O  0.64005386  0.91334983  0.02101245    -0.70600
O964        O  0.67645648  0.75589977  0.01592689    -0.70000
O965        O  0.57864192  0.92295076  0.01621425    -0.70500
O966        O  0.56040073  0.97046129  0.94528070    -0.70400
O967        O  0.60715742  0.98122574  0.90012751    -0.70200
C968        C  0.36387284  0.93140047  0.91283949     0.81600
C969        C  0.43120585  0.69847130  0.02992089     0.82100
C970        C  0.40314862  0.76677934  0.91236109     0.81000
C971        C  0.63600808  0.73522294  0.02932927     0.81400
C972        C  0.59913806  0.90311517  0.02981675     0.82600
C973        C  0.56780251  0.97086332  0.91217982     0.81600
Zn974      Zn  0.39632310  0.68745574  0.48686375     1.49700
Zn975      Zn  0.62425877  0.93805554  0.48680831     1.49400
Zn976      Zn  0.64639304  0.71028522  0.48658998     1.49100
Zn977      Zn  0.33359442  0.66752957  0.42051831     1.49500
O978        O  0.33339614  0.66738466  0.47095051    -1.79700
O979        O  0.39488217  0.97472400  0.52094852    -0.70300
O980        O  0.57930727  0.93990846  0.52064722    -0.70100
O981        O  0.35988604  0.75506318  0.52060735    -0.69600
O982        O  0.32386547  0.91314708  0.51616671    -0.70300
O983        O  0.42136589  0.74551870  0.51595983    -0.69900
O984        O  0.58849805  0.01082040  0.51574522    -0.70500
O985        O  0.64815518  0.70866022  0.40000824    -0.69900
O986        O  0.59077177  0.89422362  0.44565789    -0.70600
O987        O  0.63655568  0.74393018  0.44530813    -0.70000
O988        O  0.62587992  0.94101870  0.40032424    -0.70500
O989        O  0.39359622  0.68648992  0.40035179    -0.70400
O990        O  0.44013667  0.69752940  0.44571424    -0.70200
C991        C  0.36423296  0.93372263  0.52973082     0.81600
C992        C  0.56876917  0.97043918  0.52933448     0.82100
C993        C  0.40084500  0.76543077  0.52940537     0.81000
C994        C  0.63748426  0.73742347  0.41216655     0.81400
C995        C  0.59722033  0.90157574  0.41252163     0.82600
C996        C  0.43293150  0.69700545  0.41256575     0.81600
C997        C  0.46682763  0.71033622  0.05678227    -0.12000
C998        C  0.46599101  0.73096492  0.08708645    -0.27100
H999        H  0.49442551  0.70270159  0.05146980     0.17100
H1000       H  0.43629401  0.73478853  0.09373955     0.17600
C1001       C  0.59711550  0.86854054  0.08697459    -0.12000
C1002       C  0.57535591  0.86764198  0.05682364    -0.27100
H1003       H  0.63076545  0.89827831  0.09342759     0.17100
H1004       H  0.54004551  0.84000463  0.05167427     0.17600
C1005       C  0.60356001  0.73731949  0.08649603    -0.12000
C1006       C  0.62402603  0.75893080  0.05621075    -0.27100
H1007       H  0.59999982  0.70384155  0.09302241     0.17100
H1008       H  0.63143985  0.79414251  0.05097005     0.17600
C1009       C  0.61862210  0.90875828  0.18175368    -0.08800
C1010       C  0.60015228  0.87158939  0.16642629    -0.10400
C1011       C  0.62329973  0.71626814  0.18133024    -0.08800
C1012       C  0.60454809  0.73463660  0.16598969    -0.10400
C1013       C  0.46316429  0.73025958  0.16655341    -0.08800
C1014       C  0.42601474  0.71158155  0.18185071    -0.10400
C1015       C  0.47105643  0.71107365  0.38741532    -0.12000
C1016       C  0.46694204  0.72186656  0.35363510    -0.27100
H1017       H  0.50349236  0.71558261  0.39762255     0.17100
H1018       H  0.43349052  0.71489487  0.34354322     0.17600
C1019       C  0.58798511  0.86769758  0.35357545    -0.12000
C1020       C  0.57305233  0.86350421  0.38733635    -0.27100
H1021       H  0.61454552  0.90117920  0.34351759     0.17100
H1022       H  0.54504491  0.83103063  0.39749196     0.17600
C1023       C  0.62370886  0.76164621  0.38697609    -0.12000
C1024       C  0.61272165  0.74661449  0.35322374    -0.27100
H1025       H  0.61944083  0.78976896  0.39717032     0.17100
H1026       H  0.61943361  0.71993483  0.34310446     0.17600
C1027       C  0.59628348  0.87144416  0.27423733    -0.08800
C1028       C  0.61629882  0.90875209  0.25907964    -0.10400
C1029       C  0.60766878  0.73833933  0.27387662    -0.08800
C1030       C  0.62500863  0.71842993  0.25868959    -0.10400
C1031       C  0.46313713  0.72684603  0.27432143    -0.08800
C1032       C  0.42588036  0.70964632  0.25916724    -0.10400
C1033       C  0.41222761  0.80058214  0.85335903    -0.12000
C1034       C  0.42729536  0.80472971  0.88710345    -0.27100
H1035       H  0.38545345  0.76715078  0.84332935     0.17100
H1036       H  0.45551418  0.83711976  0.89722888     0.17600
C1037       C  0.53390617  0.94600749  0.85319579    -0.12000
C1038       C  0.52989396  0.95706855  0.88692112    -0.27100
H1039       H  0.56720522  0.95247176  0.84314284     0.17100
H1040       H  0.49762838  0.95312373  0.89700903     0.17600
C1041       C  0.38860666  0.92226491  0.85383492    -0.12000
C1042       C  0.37804756  0.90744043  0.88766248    -0.27700
H1043       H  0.38158948  0.94874566  0.84378593     0.17100
H1044       H  0.38254095  0.87947803  0.89784314     0.17600
C1045       C  0.53707520  0.94139744  0.77379852    -0.08800
C1046       C  0.57432754  0.95873706  0.75862497    -0.10400
C1047       C  0.37540429  0.95032034  0.75912389    -0.08800
C1048       C  0.39276953  0.93047620  0.77436940    -0.10400
C1049       C  0.40366264  0.79703925  0.77398394    -0.08800
C1050       C  0.38372870  0.75975355  0.75878628    -0.10400
C1051       C  0.42464727  0.80108115  0.55629406    -0.12000
C1052       C  0.40311256  0.80002367  0.58658778    -0.27100
H1053       H  0.45984346  0.82884651  0.55101743     0.17100
H1054       H  0.36962890  0.77015031  0.59315218     0.17600
C1055       C  0.53312466  0.95853032  0.55622992    -0.12000
C1056       C  0.53412911  0.93791737  0.58648471    -0.27100
H1057       H  0.50539443  0.96597927  0.55097410     0.17100
H1058       H  0.56397208  0.93429265  0.59301738     0.17600
C1059       C  0.37597069  0.90983600  0.55659735    -0.12000
C1060       C  0.39658396  0.93130076  0.58692485    -0.27100
H1061       H  0.36837093  0.87457640  0.55123283     0.17100
H1062       H  0.40038647  0.96485484  0.59360260     0.17600
C1063       C  0.38215524  0.75950538  0.68141206    -0.08800
C1064       C  0.40064628  0.79668258  0.66606938    -0.10400
C1065       C  0.57471906  0.95691997  0.68128331    -0.08800
C1066       C  0.53758273  0.93828648  0.66595293    -0.10400
C1067       C  0.39614017  0.93364390  0.66641106    -0.08800
C1068       C  0.37740811  0.95204409  0.68174535    -0.10400
C1069       C  0.77775706  0.22321225  0.59408909     0.49900
H1070       H  0.77760409  0.22327327  0.56476321     0.00900
C1071       C  0.77808295  0.22304589  0.66265954     0.50000
H1072       H  0.77824900  0.22300012  0.69174088     0.00900
C1073       C  0.82637635  0.24991768  0.60981099    -0.12800
C1074       C  0.75116425  0.24503498  0.61013708    -0.12500
C1075       C  0.75596541  0.17458114  0.60985443    -0.12900
C1076       C  0.82741501  0.24945688  0.64595026    -0.12900
C1077       C  0.75166963  0.24614782  0.64627972    -0.12500
C1078       C  0.75490394  0.17360179  0.64599671    -0.12800
C1079       C  0.77775969  0.22303844  0.77757876     0.49900
H1080       H  0.77754240  0.22300995  0.74849689     0.00900
C1081       C  0.77820886  0.22306394  0.84596886     0.50000
H1082       H  0.77841623  0.22310643  0.87487921     0.00900
C1083       C  0.82695589  0.25290734  0.79401905    -0.12800
C1084       C  0.74804828  0.24230412  0.79438174    -0.12500
C1085       C  0.75860895  0.17391902  0.79413601    -0.12900
C1086       C  0.82612554  0.25405044  0.83019179    -0.12900
C1087       C  0.74715006  0.24010092  0.83055848    -0.12500
C1088       C  0.76102415  0.17498087  0.83030356    -0.12800
C1089       C  0.00037088  0.00070023  0.68564432     0.49900
H1090       H  0.66705632  0.00050416  0.65630680     0.00900
C1091       C  0.00013773  0.00082982  0.75473262     0.50000
H1092       H  0.00004524  0.00090637  0.78409886     0.00900
C1093       C  0.68949745  0.30735645  0.70237859    -0.12800
C1094       C  0.69341830  0.04997770  0.70206106    -0.12500
C1095       C  0.95085605  0.31111375  0.70205810    -0.12900
C1096       C  0.68908937  0.30712009  0.73857512    -0.12900
C1097       C  0.69360362  0.05007300  0.73826211    -0.12500
C1098       C  0.95068025  0.31147388  0.73825308    -0.12800
C1099       C  0.88911526  0.11222122  0.27755184     0.49900
H1100       H  0.88896752  0.11223859  0.24848264     0.00900
C1101       C  0.88938849  0.11213891  0.34594921     0.50000
H1102       H  0.88951151  0.11210700  0.37486974     0.00900
C1103       C  0.84013095  0.08220033  0.29424432    -0.12800
C1104       C  0.91914122  0.09312332  0.29398511    -0.12500
C1105       C  0.90830442  0.16132182  0.29421436    -0.12900
C1106       C  0.84133502  0.08098726  0.33040404    -0.12900
C1107       C  0.92043568  0.09529426  0.33015294    -0.12500
C1108       C  0.90621214  0.16019288  0.33038501    -0.12800
C1109       C  0.88896802  0.11215889  0.09425950     0.49900
H1110       H  0.88877837  0.11219702  0.06493425     0.00900
C1111       C  0.88940134  0.11208242  0.16282417     0.50000
H1112       H  0.88961152  0.11207115  0.19189282     0.00900
C1113       C  0.84053452  0.08545346  0.11026184    -0.12800
C1114       C  0.91575371  0.09029148  0.10987538    -0.12500
C1115       C  0.91091816  0.16072204  0.11017332    -0.12900
C1116       C  0.83988023  0.08573929  0.14640107    -0.12900
C1117       C  0.91562515  0.08901336  0.14601744    -0.12500
C1118       C  0.91238111  0.16155352  0.14630324    -0.12800
C1119       C  0.66721462  0.00106516  0.18583375     0.49900
H1120       H  0.00066175  0.00099290  0.15646242     0.00900
C1121       C  0.66695746  0.00127430  0.25492507     0.50000
H1122       H  0.66685797  0.00138549  0.28429098     0.00900
C1123       C  0.97778865  0.02771370  0.20207983    -0.12800
C1124       C  0.97398866  0.28517849  0.20229625    -0.12500
C1125       C  0.71641246  0.02388127  0.20239127    -0.12900
C1126       C  0.97796429  0.02814639  0.23827699    -0.12900
C1127       C  0.97354881  0.28524892  0.23848887    -0.12500
C1128       C  0.71630910  0.02366925  0.23858227    -0.12800
Zn1129     Zn  0.00053310  0.00088982  0.92059484     1.49700
Zn1130     Zn  0.68704207  0.29142786  0.98709998     1.49400
Zn1131     Zn  0.70957617  0.06408995  0.98686773     1.49100
Zn1132     Zn  0.93720698  0.31398960  0.98668747     1.49500
O1133       O  0.00030156  0.00105742  0.97103036    -1.79700
O1134       O  0.68634847  0.29319425  0.90067779    -0.70300
O1135       O  0.74460414  0.99114901  0.01653563    -0.70100
O1136       O  0.74323676  0.10762768  0.94556733    -0.69600
O1137       O  0.69747354  0.25776881  0.94602762    -0.70300
O1138       O  0.70774065  0.06070941  0.90030754    -0.69900
O1139       O  0.75432416  0.06233658  0.02105844    -0.70500
O1140       O  0.93892625  0.02769832  0.02035832    -0.69900
O1141       O  0.97335224  0.24657919  0.02107214    -0.70600
O1142       O  0.00994506  0.08934218  0.01588378    -0.70000
O1143       O  0.91194244  0.25616643  0.01615617    -0.70500
O1144       O  0.89378824  0.30387661  0.94531921    -0.70400
O1145       O  0.94048936  0.31464504  0.90013353    -0.70200
C1146       C  0.69698714  0.26446982  0.91288529     0.81600
C1147       C  0.76453175  0.03164579  0.02996909     0.82100
C1148       C  0.73655122  0.10017882  0.91243232     0.81000
C1149       C  0.96945904  0.06873378  0.02921812     0.81400
C1150       C  0.93241742  0.23634376  0.02981642     0.82600
C1151       C  0.90115705  0.30432929  0.91220965     0.81600
Zn1152     Zn  0.72995720  0.02131658  0.48674448     1.49700
Zn1153     Zn  0.95751972  0.27142688  0.48685877     1.49400
Zn1154     Zn  0.98002699  0.04395203  0.48654398     1.49100
Zn1155     Zn  0.66713144  0.00102301  0.42041024     1.49500
O1156       O  0.66697227  0.00103916  0.47084681    -1.79700
O1157       O  0.72780842  0.30790799  0.52101829    -0.70300
O1158       O  0.91254111  0.27329893  0.52067374    -0.70100
O1159       O  0.69324459  0.08864537  0.52050956    -0.69600
O1160       O  0.65668476  0.24646690  0.51637539    -0.70300
O1161       O  0.75486705  0.07934315  0.51584044    -0.69900
O1162       O  0.92175649  0.34420875  0.51570417    -0.70500
O1163       O  0.98170688  0.04215957  0.39995395    -0.69900
O1164       O  0.92410378  0.22765532  0.44565320    -0.70600
O1165       O  0.97017004  0.07752695  0.44522197    -0.70000
O1166       O  0.95947916  0.27441060  0.40034651    -0.70500
O1167       O  0.72706540  0.01964841  0.40025467    -0.70400
O1168       O  0.77379277  0.03146463  0.44564357    -0.70200
C1169       C  0.69708058  0.26698425  0.52990362     0.81600
C1170       C  0.90200470  0.30384320  0.52931975     0.82100
C1171       C  0.73423610  0.09912806  0.52930648     0.81000
C1172       C  0.97105502  0.07094939  0.41208661     0.81400
C1173       C  0.93071814  0.23498871  0.41252290     0.82600
C1174       C  0.76648253  0.03050865  0.41248867     0.81600
C1175       C  0.80017044  0.04346814  0.05682253    -0.12000
C1176       C  0.79936898  0.06408158  0.08714669    -0.27100
H1177       H  0.82778652  0.03587481  0.05146573     0.17100
H1178       H  0.76966804  0.06788218  0.09383431     0.17600
C1179       C  0.93033696  0.20182714  0.08699760    -0.12000
C1180       C  0.90859797  0.20089139  0.05682813    -0.27100
H1181       H  0.96396636  0.23159002  0.09345868     0.17100
H1182       H  0.87330856  0.17322376  0.05165571     0.17600
C1183       C  0.93720170  0.07087672  0.08644998    -0.12000
C1184       C  0.95748687  0.09244417  0.05610429    -0.27100
H1185       H  0.93382771  0.03748347  0.09300150     0.17100
H1186       H  0.96472590  0.12758719  0.05081179     0.17600
C1187       C  0.95193164  0.24209783  0.18173475    -0.08800
C1188       C  0.93344081  0.20490243  0.16643448    -0.10400
C1189       C  0.95687721  0.04968258  0.18131254    -0.08800
C1190       C  0.93814796  0.06806937  0.16595971    -0.10400
C1191       C  0.79663874  0.06341846  0.16659769    -0.08800
C1192       C  0.75948411  0.04476450  0.18188172    -0.10400
C1193       C  0.80458124  0.04450607  0.38734448    -0.12000
C1194       C  0.80044706  0.05527617  0.35356941    -0.27100
H1195       H  0.83702286  0.04904332  0.39756216     0.17100
H1196       H  0.76699173  0.04830404  0.34348531     0.17600
C1197       C  0.92152863  0.20111988  0.35356186    -0.12000
C1198       C  0.90659124  0.19691903  0.38732420    -0.27100
H1199       H  0.94809629  0.23460181  0.34351036     0.17100
H1200       H  0.87856481  0.16444707  0.39746496     0.17600
C1201       C  0.95726038  0.09513149  0.38687700    -0.12000
C1202       C  0.94621134  0.08003434  0.35314553    -0.27100
H1203       H  0.95303574  0.12329318  0.39704274     0.17100
H1204       H  0.95287687  0.05331564  0.34304409     0.17600
C1205       C  0.92975457  0.20487156  0.27421542    -0.08800
C1206       C  0.94975669  0.24216953  0.25905428    -0.10400
C1207       C  0.94114016  0.07177467  0.27381259    -0.08800
C1208       C  0.95849307  0.05185689  0.25866218    -0.10400
C1209       C  0.79659786  0.06026296  0.27429253    -0.08800
C1210       C  0.75931121  0.04301630  0.25917730    -0.10400
C1211       C  0.74567623  0.13399947  0.85342695    -0.12000
C1212       C  0.76069378  0.13815702  0.88718922    -0.27100
H1213       H  0.71896728  0.10055000  0.84337541     0.17100
H1214       H  0.78886717  0.17056496  0.89733216     0.17600
C1215       C  0.86719879  0.27955970  0.85322919    -0.12000
C1216       C  0.86322092  0.29058903  0.88697230    -0.27100
H1217       H  0.90050052  0.28607246  0.84314476     0.17100
H1218       H  0.83094568  0.28658281  0.89709661     0.17600
C1219       C  0.72168660  0.25539103  0.85388432    -0.12000
C1220       C  0.71110360  0.24049305  0.88768868    -0.27700
H1221       H  0.71465034  0.28186891  0.84385831     0.17100
H1222       H  0.71562455  0.21253165  0.89783745     0.17600
C1223       C  0.87030223  0.27484609  0.77384727    -0.08800
C1224       C  0.90754290  0.29212188  0.75867351    -0.10400
C1225       C  0.70851783  0.28357480  0.75924272    -0.08800
C1226       C  0.72589945  0.26372341  0.77445667    -0.10400
C1227       C  0.73708970  0.13045236  0.77403314    -0.08800
C1228       C  0.71718155  0.09319686  0.75879100    -0.10400
C1229       C  0.75795800  0.13476497  0.55621257    -0.12000
C1230       C  0.73642878  0.13357914  0.58654018    -0.27100
H1231       H  0.79311160  0.16261461  0.55092840     0.17100
H1232       H  0.70300774  0.10362361  0.59311379     0.17600
C1233       C  0.86634359  0.29197505  0.55619974    -0.12000
C1234       C  0.86733612  0.27141177  0.58648524    -0.27100
H1235       H  0.83862620  0.29943344  0.55091505     0.17100
H1236       H  0.89717245  0.26778565  0.59303975     0.17600
C1237       C  0.70879983  0.24311789  0.55681658    -0.12000
C1238       C  0.72961718  0.26469320  0.58706488    -0.27100
H1239       H  0.70113558  0.20782513  0.55150875     0.17100
H1240       H  0.73353562  0.29830823  0.59369157     0.17600
C1241       C  0.71553488  0.09299772  0.68139592    -0.08800
C1242       C  0.73398001  0.13015657  0.66603854    -0.10400
C1243       C  0.90795000  0.29027290  0.68132425    -0.08800
C1244       C  0.87082985  0.27170654  0.66596646    -0.10400
C1245       C  0.72930160  0.26696153  0.66654087    -0.08800
C1246       C  0.71054350  0.28531865  0.68188358    -0.10400
C1247       C  0.77762191  0.55637800  0.59411748     0.49900
H1248       H  0.77743678  0.55640129  0.56479208     0.00900
C1249       C  0.77802417  0.55629638  0.66268383     0.50000
H1250       H  0.77821817  0.55628728  0.69176274     0.00900
C1251       C  0.82625633  0.58307642  0.60981270    -0.12800
C1252       C  0.75105507  0.57822681  0.61015050    -0.12500
C1253       C  0.75583535  0.50777357  0.60991149    -0.12900
C1254       C  0.82734268  0.58265969  0.64595001    -0.12900
C1255       C  0.75161957  0.57940677  0.64629171    -0.12500
C1256       C  0.75480773  0.50682902  0.64605274    -0.12800
C1257       C  0.77776228  0.55635789  0.77757381     0.49900
H1258       H  0.77754802  0.55633562  0.74849441     0.00900
C1259       C  0.77820056  0.55634891  0.84596301     0.50000
H1260       H  0.77840348  0.55635258  0.87487213     0.00900
C1261       C  0.82696944  0.58617259  0.79401566    -0.12800
C1262       C  0.74809309  0.57567800  0.79438083    -0.12500
C1263       C  0.75856263  0.50722714  0.79412440    -0.12900
C1264       C  0.82613007  0.58729542  0.83019062    -0.12900
C1265       C  0.74719894  0.57346855  0.83056186    -0.12500
C1266       C  0.76096996  0.50826840  0.83028569    -0.12800
C1267       C  0.00018179  0.33382152  0.68576013     0.49900
H1268       H  0.66693450  0.33375195  0.65640180     0.00900
C1269       C  0.99991006  0.33397387  0.75484866     0.50000
H1270       H  0.99979826  0.33406581  0.78421480     0.00900
C1271       C  0.68961922  0.64080976  0.70234306    -0.12800
C1272       C  0.69333666  0.38323165  0.70214368    -0.12500
C1273       C  0.95084649  0.64436221  0.70200944    -0.12900
C1274       C  0.68920211  0.64058127  0.73854022    -0.12900
C1275       C  0.69352216  0.38333817  0.73834214    -0.12500
C1276       C  0.95068918  0.64475684  0.73820640    -0.12800
C1277       C  0.88913093  0.44544428  0.27753123     0.49900
H1278       H  0.88897873  0.44542994  0.24845957     0.00900
C1279       C  0.88939134  0.44540675  0.34592886     0.50000
H1280       H  0.88953013  0.44541026  0.37484928     0.00900
C1281       C  0.84016119  0.41535451  0.29423366    -0.12800
C1282       C  0.91923835  0.42645759  0.29398258    -0.12500
C1283       C  0.90821296  0.49454542  0.29416224    -0.12900
C1284       C  0.84135165  0.41416245  0.33040161    -0.12900
C1285       C  0.92052905  0.42865507  0.33014996    -0.12500
C1286       C  0.90607517  0.49342240  0.33033114    -0.12800
C1287       C  0.88919877  0.44549319  0.09419801     0.49900
H1288       H  0.88908705  0.44552906  0.06487148     0.00900
C1289       C  0.88949548  0.44544579  0.16276646     0.50000
H1290       H  0.88964921  0.44544834  0.19183771     0.00900
C1291       C  0.84072833  0.41880667  0.11014801    -0.12800
C1292       C  0.91591375  0.42359687  0.10988370    -0.12500
C1293       C  0.91114411  0.49406494  0.11010216    -0.12900
C1294       C  0.84000651  0.41911349  0.14629070    -0.12900
C1295       C  0.91572272  0.42234524  0.14602185    -0.12500
C1296       C  0.91252519  0.49490960  0.14623317    -0.12800
C1297       C  0.66733499  0.33451903  0.18575659     0.49900
H1298       H  0.00066918  0.33430091  0.15641874     0.00900
C1299       C  0.66712331  0.33471008  0.25484878     0.50000
H1300       H  0.66704111  0.33480480  0.28421515     0.00900
C1301       C  0.97788723  0.36106738  0.20206551    -0.12800
C1302       C  0.97385419  0.61851185  0.20226112    -0.12500
C1303       C  0.71654281  0.35730221  0.20229466    -0.12900
C1304       C  0.97811216  0.36152616  0.23826087    -0.12900
C1305       C  0.97337830  0.61852618  0.23845493    -0.12500
C1306       C  0.71645104  0.35706667  0.23848765    -0.12800
Zn1307     Zn  0.00035337  0.33389267  0.92064978     1.49700
Zn1308     Zn  0.68707663  0.62498935  0.98709266     1.49400
Zn1309     Zn  0.70971837  0.39736793  0.98682197     1.49100
Zn1310     Zn  0.93712973  0.64731723  0.98672020     1.49500
O1311       O  0.00024168  0.33411644  0.97108303    -1.79700
O1312       O  0.68658129  0.62681875  0.90066579    -0.70300
O1313       O  0.74480048  0.32443300  0.01645383    -0.70100
O1314       O  0.74322018  0.44087316  0.94548994    -0.69600
O1315       O  0.69762795  0.59138647  0.94604386    -0.70300
O1316       O  0.70782345  0.39390014  0.90023306    -0.69900
O1317       O  0.75462297  0.39566655  0.02086799    -0.70500
O1318       O  0.93906747  0.36095542  0.02044334    -0.69900
O1319       O  0.97362092  0.58024539  0.02110608    -0.70600
O1320       O  0.01022289  0.42241169  0.01605624    -0.70000
O1321       O  0.91197819  0.58942135  0.01609162    -0.70500
O1322       O  0.89374556  0.63717608  0.94532882    -0.70400
O1323       O  0.94046449  0.64793463  0.90014821    -0.70200
C1324       C  0.69720215  0.59809328  0.91289800     0.81600
C1325       C  0.76481535  0.36497606  0.02980710     0.82100
C1326       C  0.73658083  0.43339453  0.91235601     0.81000
C1327       C  0.96971857  0.40191870  0.02936181     0.81400
C1328       C  0.93260199  0.56977393  0.02978999     0.82600
C1329       C  0.90112247  0.63758859  0.91222170     0.81600
Zn1330     Zn  0.72979696  0.35453855  0.48682447     1.49700
Zn1331     Zn  0.95718250  0.60439385  0.48679748     1.49400
Zn1332     Zn  0.97985588  0.37706425  0.48654092     1.49100
Zn1333     Zn  0.66715230  0.33448756  0.42047899     1.49500
O1334       O  0.66685963  0.33444126  0.47091437    -1.79700
O1335       O  0.72762389  0.64094679  0.52099122    -0.70300
O1336       O  0.91224640  0.60631209  0.52060838    -0.70100
O1337       O  0.69325294  0.42211676  0.52047902    -0.69600
O1338       O  0.65652769  0.57946819  0.51631392    -0.70300
O1339       O  0.75472484  0.41253519  0.51594092    -0.69900
O1340       O  0.92147471  0.67723959  0.51568230    -0.70500
O1341       O  0.98182680  0.37553537  0.39995016    -0.69900
O1342       O  0.92366164  0.56063426  0.44559645    -0.70600
O1343       O  0.97009787  0.41073230  0.44524007    -0.70000
O1344       O  0.95895636  0.60748588  0.40032794    -0.70500
O1345       O  0.72710134  0.35319410  0.40031938    -0.70400
O1346       O  0.77369646  0.36465724  0.44571994    -0.70200
C1347       C  0.69690886  0.60001416  0.52987052     0.81600
C1348       C  0.90172448  0.63686279  0.52927029     0.82100
C1349       C  0.73417546  0.43243825  0.52934549     0.81000
C1350       C  0.97109320  0.40425932  0.41209934     0.81400
C1351       C  0.93021493  0.56804101  0.41247012     0.82600
C1352       C  0.76646646  0.36388111  0.41255919     0.81600
C1353       C  0.80047736  0.37684232  0.05665009    -0.12000
C1354       C  0.79960407  0.39739842  0.08698896    -0.27100
H1355       H  0.82813905  0.36931917  0.05128561     0.17100
H1356       H  0.76984793  0.40110944  0.09366851     0.17600
C1357       C  0.93058439  0.53516776  0.08692449    -0.12000
C1358       C  0.90884523  0.53424010  0.05675859    -0.27100
H1359       H  0.96419004  0.56494974  0.09340933     0.17100
H1360       H  0.87356694  0.50655267  0.05157898     0.17600
C1361       C  0.93732756  0.40408567  0.08652477    -0.12000
C1362       C  0.95783871  0.42569836  0.05625250    -0.27100
H1363       H  0.93371757  0.37058551  0.09304663     0.17100
H1364       H  0.96527019  0.46091337  0.05100091     0.17600
C1365       C  0.95190606  0.57545480  0.18166694    -0.08800
C1366       C  0.93350266  0.53826479  0.16635776    -0.10400
C1367       C  0.95694488  0.38301702  0.18132821    -0.08800
C1368       C  0.93820330  0.40139931  0.16599766    -0.10400
C1369       C  0.79674103  0.39679667  0.16646134    -0.08800
C1370       C  0.75959996  0.37815999  0.18176622    -0.10400
C1371       C  0.80458763  0.37785787  0.38741625    -0.12000
C1372       C  0.80045690  0.38850013  0.35359293    -0.27100
H1373       H  0.83703408  0.38244139  0.39766266     0.17100
H1374       H  0.76699264  0.38145691  0.34347712     0.17600
C1375       C  0.92115188  0.53431594  0.35348885    -0.12000
C1376       C  0.90610442  0.53003446  0.38722507    -0.27100
H1377       H  0.94769616  0.56783207  0.34347254     0.17100
H1378       H  0.87809393  0.49751837  0.39732173     0.17600
C1379       C  0.95730768  0.42846876  0.38690358    -0.12000
C1380       C  0.94634258  0.41344303  0.35315026    -0.27100
H1381       H  0.95299344  0.45656260  0.39709925     0.17100
H1382       H  0.95309598  0.38679111  0.34303129     0.17600
C1383       C  0.92961696  0.53809502  0.27414688    -0.08800
C1384       C  0.94960148  0.57540554  0.25899057    -0.10400
C1385       C  0.94127978  0.40513711  0.27382112    -0.08800
C1386       C  0.95864935  0.38523619  0.25866470    -0.10400
C1387       C  0.79665773  0.39345526  0.27426408    -0.08800
C1388       C  0.75942414  0.37630249  0.25909110    -0.10400
C1389       C  0.74562096  0.46726377  0.85338472    -0.12000
C1390       C  0.76070433  0.47138253  0.88711980    -0.27100
H1391       H  0.71887006  0.43383043  0.84334034     0.17100
H1392       H  0.78890100  0.50378116  0.89725588     0.17600
C1393       C  0.86719061  0.61277160  0.85324046    -0.12000
C1394       C  0.86319216  0.62380247  0.88697898    -0.27100
H1395       H  0.90049483  0.61927838  0.84316621     0.17100
H1396       H  0.83091748  0.61981116  0.89709000     0.17600
C1397       C  0.72183043  0.58886901  0.85389763    -0.12000
C1398       C  0.71131972  0.57408075  0.88773224    -0.27700
H1399       H  0.71478384  0.61532623  0.84384088     0.17100
H1400       H  0.71583126  0.54613310  0.89792216     0.17600
C1401       C  0.87032235  0.60809686  0.77383935    -0.08800
C1402       C  0.90755512  0.62537677  0.75864552    -0.10400
C1403       C  0.70861575  0.61701913  0.75922693    -0.08800
C1404       C  0.72597719  0.59714552  0.77445183    -0.10400
C1405       C  0.73704214  0.46375988  0.77403453    -0.08800
C1406       C  0.71711771  0.42647417  0.75884327    -0.10400
C1407       C  0.75789371  0.46799612  0.55629175    -0.12000
C1408       C  0.73632264  0.46677573  0.58660495    -0.27100
H1409       H  0.79306395  0.49583365  0.55104064     0.17100
H1410       H  0.70287495  0.43683452  0.59314358     0.17600
C1411       C  0.86610015  0.62500659  0.55615840    -0.12000
C1412       C  0.86717229  0.60452288  0.58645791    -0.27100
H1413       H  0.83836591  0.63244288  0.55088170     0.17100
H1414       H  0.89703255  0.60093273  0.59300238     0.17600
C1415       C  0.70862663  0.57618536  0.55682120    -0.12000
C1416       C  0.72944921  0.59781162  0.58705869    -0.27100
H1417       H  0.70097962  0.54089152  0.55154357     0.17100
H1418       H  0.73334724  0.63142700  0.59365229     0.17600
C1419       C  0.71547174  0.42624521  0.68147232    -0.08800
C1420       C  0.73391264  0.46340114  0.66611236    -0.10400
C1421       C  0.90792271  0.62347659  0.68128452    -0.08800
C1422       C  0.87078764  0.60490270  0.66594003    -0.10400
C1423       C  0.72932951  0.60030468  0.66653909    -0.08800
C1424       C  0.71062834  0.61872747  0.68186529    -0.10400
C1425       C  0.77797219  0.88987523  0.59403705     0.49900
H1426       H  0.77788039  0.88992502  0.56471079     0.00900
C1427       C  0.77821294  0.88974827  0.66260795     0.50000
H1428       H  0.77834803  0.88971942  0.69168801     0.00900
C1429       C  0.82656701  0.91657494  0.60979092    -0.12800
C1430       C  0.75138967  0.91174346  0.61003953    -0.12500
C1431       C  0.75612201  0.84124609  0.60981710    -0.12900
C1432       C  0.82756537  0.91613726  0.64592684    -0.12900
C1433       C  0.75183953  0.91287015  0.64618479    -0.12500
C1434       C  0.75502608  0.84028799  0.64596134    -0.12800
C1435       C  0.77790310  0.88982340  0.77750783     0.49900
H1436       H  0.77766617  0.88977841  0.74842733     0.00900
C1437       C  0.77838240  0.88988686  0.84589489     0.50000
H1438       H  0.77860370  0.88993935  0.87480227     0.00900
C1439       C  0.82712748  0.91962945  0.79392952    -0.12800
C1440       C  0.74827265  0.90918390  0.79431755    -0.12500
C1441       C  0.75866115  0.84069755  0.79407977    -0.12900
C1442       C  0.82630753  0.92078632  0.83010088    -0.12900
C1443       C  0.74739949  0.90701793  0.83049824    -0.12500
C1444       C  0.76108353  0.84177793  0.83024569    -0.12800
C1445       C  0.00017364  0.66710416  0.68569976     0.49900
H1446       H  0.66705393  0.66716327  0.65634122     0.00900
C1447       C  0.99993754  0.66733429  0.75478671     0.50000
H1448       H  0.99983890  0.66746017  0.78415269     0.00900
C1449       C  0.68967153  0.97413552  0.70226892    -0.12800
C1450       C  0.69341136  0.71667301  0.70207409    -0.12500
C1451       C  0.95104883  0.97794032  0.70196735    -0.12900
C1452       C  0.68926296  0.97389835  0.73846744    -0.12900
C1453       C  0.69357583  0.71678854  0.73827598    -0.12500
C1454       C  0.95088953  0.97828568  0.73816110    -0.12800
C1455       C  0.88893381  0.77880617  0.27758401     0.49900
H1456       H  0.88881795  0.77882679  0.24851162     0.00900
C1457       C  0.88913079  0.77870039  0.34598335     0.50000
H1458       H  0.88921435  0.77865097  0.37490368     0.00900
C1459       C  0.83992682  0.74878834  0.29424842    -0.12800
C1460       C  0.91892625  0.75968148  0.29403852    -0.12500
C1461       C  0.90812337  0.82791096  0.29424839    -0.12900
C1462       C  0.84108786  0.74755981  0.33041345    -0.12900
C1463       C  0.92017831  0.76183609  0.33020815    -0.12500
C1464       C  0.90599071  0.82676994  0.33042225    -0.12800
C1465       C  0.88896764  0.77891527  0.09424040     0.49900
H1466       H  0.88884291  0.77895839  0.06491547     0.00900
C1467       C  0.88926427  0.77882450  0.16280445     0.50000
H1468       H  0.88942092  0.77881678  0.19187647     0.00900
C1469       C  0.84049852  0.75233181  0.11019386    -0.12800
C1470       C  0.91558479  0.75690230  0.10991101    -0.12500
C1471       C  0.91101819  0.82748563  0.11013897    -0.12900
C1472       C  0.83976738  0.75259345  0.14633237    -0.12900
C1473       C  0.91539734  0.75563035  0.14605050    -0.12500
C1474       C  0.91240018  0.82830143  0.14627315    -0.12800
C1475       C  0.66703850  0.66774872  0.18576233     0.49900
H1476       H  0.00047676  0.66770997  0.15642216     0.00900
C1477       C  0.66682878  0.66788755  0.25485290     0.50000
H1478       H  0.66674873  0.66796443  0.28421901     0.00900
C1479       C  0.97756609  0.69432256  0.20208925    -0.12800
C1480       C  0.97394566  0.95184823  0.20232795    -0.12500
C1481       C  0.71625535  0.69056759  0.20229755    -0.12900
C1482       C  0.97777750  0.69473721  0.23828692    -0.12900
C1483       C  0.97344814  0.95188458  0.23852189    -0.12500
C1484       C  0.71617064  0.69030741  0.23849099    -0.12800
Zn1485     Zn  0.00036504  0.66740832  0.92064596     1.49700
Zn1486     Zn  0.68694320  0.95813060  0.98709352     1.49400
Zn1487     Zn  0.70954171  0.73090598  0.98682872     1.49100
Zn1488     Zn  0.93724745  0.98078522  0.98662802     1.49500
O1489       O  0.00019145  0.66769018  0.97108267    -1.79700
O1490       O  0.68660308  0.96015147  0.90065285    -0.70300
O1491       O  0.74476532  0.65808640  0.01644237    -0.70100
O1492       O  0.74310262  0.77447434  0.94552403    -0.69600
O1493       O  0.69757026  0.92460941  0.94599417    -0.70300
O1494       O  0.70787530  0.72746092  0.90025636    -0.69900
O1495       O  0.75439833  0.72924661  0.02094042    -0.70500
O1496       O  0.93882690  0.69414246  0.02055228    -0.69900
O1497       O  0.97358461  0.91349010  0.02097892    -0.70600
O1498       O  0.00973421  0.75592078  0.01588660    -0.70000
O1499       O  0.91211482  0.92298215  0.01612194    -0.70500
O1500       O  0.89388072  0.97056687  0.94521405    -0.70400
O1501       O  0.94069366  0.98160280  0.90004109    -0.70200
C1502       C  0.69722199  0.93141185  0.91285358     0.81600
C1503       C  0.76466236  0.69859482  0.02984661     0.82100
C1504       C  0.73654559  0.76697781  0.91238547     0.81000
C1505       C  0.96931594  0.73523030  0.02933540     0.81400
C1506       C  0.93264232  0.90319457  0.02975508     0.82600
C1507       C  0.90131407  0.97113237  0.91210618     0.81600
Zn1508     Zn  0.72962590  0.68758739  0.48679503     1.49700
Zn1509     Zn  0.95768043  0.93823606  0.48684115     1.49400
Zn1510     Zn  0.97953327  0.71011170  0.48653999     1.49100
Zn1511     Zn  0.66685724  0.66753563  0.42045281     1.49500
O1512       O  0.66668236  0.66748634  0.47088992    -1.79700
O1513       O  0.72813231  0.97472946  0.52089157    -0.70300
O1514       O  0.91278417  0.94016073  0.52070124    -0.70100
O1515       O  0.69318380  0.75520430  0.52052917    -0.69600
O1516       O  0.65709308  0.91316008  0.51621737    -0.70300
O1517       O  0.75466593  0.74566486  0.51588877    -0.69900
O1518       O  0.92199916  0.01108404  0.51577607    -0.70500
O1519       O  0.98136627  0.70856055  0.39997538    -0.69900
O1520       O  0.92413480  0.89436093  0.44569556    -0.70600
O1521       O  0.96969257  0.74376291  0.44528201    -0.70000
O1522       O  0.95934866  0.94106338  0.40034334    -0.70500
O1523       O  0.72680550  0.68628778  0.40027443    -0.70400
O1524       O  0.77342978  0.69765481  0.44564517    -0.70200
C1525       C  0.69748698  0.93375539  0.52973721     0.81600
C1526       C  0.90226260  0.97070825  0.52937858     0.82100
C1527       C  0.73414729  0.76558529  0.52932635     0.81000
C1528       C  0.97065021  0.73728750  0.41214105     0.81400
C1529       C  0.93063985  0.90164763  0.41255470     0.82600
C1530       C  0.76617498  0.69694209  0.41249225     0.81600
C1531       C  0.80027828  0.71044475  0.05670563    -0.12000
C1532       C  0.79939574  0.73101084  0.08702914    -0.27100
H1533       H  0.82789479  0.70284103  0.05138224     0.17100
H1534       H  0.76967366  0.73479050  0.09368586     0.17600
C1535       C  0.93053344  0.86859618  0.08694412    -0.12000
C1536       C  0.90884659  0.86768814  0.05674681    -0.27100
H1537       H  0.96414785  0.89835679  0.09343989     0.17100
H1538       H  0.87355987  0.84002883  0.05155504     0.17600
C1539       C  0.93695261  0.73736947  0.08652784    -0.12000
C1540       C  0.95736860  0.75895208  0.05622295    -0.27100
H1541       H  0.93341703  0.70390584  0.09306959     0.17100
H1542       H  0.96476553  0.79415505  0.05096729     0.17600
C1543       C  0.95193912  0.90879763  0.18174394    -0.08800
C1544       C  0.93347044  0.87163157  0.16641223    -0.10400
C1545       C  0.95658494  0.71625345  0.18136221    -0.08800
C1546       C  0.93784428  0.73463737  0.16602386    -0.10400
C1547       C  0.79648446  0.73023879  0.16648916    -0.08800
C1548       C  0.75932253  0.71152592  0.18177038    -0.10400
C1549       C  0.80428691  0.71098576  0.38733739    -0.12000
C1550       C  0.80017843  0.72181748  0.35356801    -0.27100
H1551       H  0.83672366  0.71549561  0.39754327     0.17100
H1552       H  0.76672992  0.71486028  0.34347969     0.17600
C1553       C  0.92132203  0.86770723  0.35360037    -0.12000
C1554       C  0.90646162  0.86353788  0.38738571    -0.27100
H1555       H  0.94785456  0.90118911  0.34352259     0.17100
H1556       H  0.87847436  0.83107140  0.39756749     0.17600
C1557       C  0.95687203  0.76151917  0.38696534    -0.12000
C1558       C  0.94589243  0.74651261  0.35321051    -0.27100
H1559       H  0.95261452  0.78964342  0.39717050     0.17100
H1560       H  0.95258647  0.71982426  0.34308338     0.17600
C1561       C  0.92960739  0.87147490  0.27424459    -0.08800
C1562       C  0.94962737  0.90877877  0.25907764    -0.10400
C1563       C  0.94092897  0.73831709  0.27387653    -0.08800
C1564       C  0.95828804  0.71840882  0.25871226    -0.10400
C1565       C  0.79642537  0.72685429  0.27425360    -0.08800
C1566       C  0.75917255  0.70963003  0.25908813    -0.10400
C1567       C  0.74565034  0.80079860  0.85338493    -0.12000
C1568       C  0.76068464  0.80494733  0.88714028    -0.27100
H1569       H  0.71888739  0.76736556  0.84334937     0.17100
H1570       H  0.78889258  0.83733589  0.89727668     0.17600
C1571       C  0.86738355  0.94628220  0.85313208    -0.12000
C1572       C  0.86340023  0.95736561  0.88685580    -0.27100
H1573       H  0.90067711  0.95274546  0.84306687     0.17100
H1574       H  0.83113570  0.95340580  0.89696001     0.17600
C1575       C  0.72200519  0.92238417  0.85384382    -0.12000
C1576       C  0.71142005  0.90749566  0.88765575    -0.27700
H1577       H  0.71498092  0.94886931  0.84381573     0.17100
H1578       H  0.71591313  0.87951775  0.89780371     0.17600
C1579       C  0.87048296  0.94156381  0.77375237    -0.08800
C1580       C  0.90774233  0.95887453  0.75859190    -0.10400
C1581       C  0.70871917  0.95039144  0.75913970    -0.08800
C1582       C  0.72611661  0.93057884  0.77438115    -0.10400
C1583       C  0.73707795  0.79721077  0.77399731    -0.08800
C1584       C  0.71714819  0.75993282  0.75878476    -0.10400
C1585       C  0.75796606  0.80127136  0.55619568    -0.12000
C1586       C  0.73648517  0.80021414  0.58652014    -0.27100
H1587       H  0.79314611  0.82904831  0.55088746     0.17100
H1588       H  0.70302423  0.77032753  0.59311318     0.17600
C1589       C  0.86660814  0.95881251  0.55626605    -0.12000
C1590       C  0.86755429  0.93813049  0.58649867    -0.27100
H1591       H  0.83890497  0.96630269  0.55101407     0.17100
H1592       H  0.89736728  0.93445334  0.59302831     0.17600
C1593       C  0.70926891  0.90991818  0.55661601    -0.12000
C1594       C  0.72991223  0.93142394  0.58692449    -0.27100
H1595       H  0.70169655  0.87466402  0.55126688     0.17100
H1596       H  0.73369732  0.96497377  0.59359100     0.17600
C1597       C  0.71557444  0.75968855  0.68139033    -0.08800
C1598       C  0.73405503  0.79684457  0.66601979    -0.10400
C1599       C  0.90811970  0.95705815  0.68126402    -0.08800
C1600       C  0.87097147  0.93843982  0.66594812    -0.10400
C1601       C  0.72947044  0.93372400  0.66641549    -0.08800
C1602       C  0.71072140  0.95209687  0.68176149    -0.10400
loop_ 
_geom_bond_atom_site_label_1 
_geom_bond_atom_site_label_2 
_geom_bond_distance 
_geom_bond_site_symmetry_2 
_ccdc_geom_bond_type 
C1            H2   1.110       .  S
C1            C7   1.524       .  S
C1            C6   1.523       .  S
C1            C5   1.523       .  S
C3            H4   1.100       .  S
C3            C9   1.556       .  S
C3            C8   1.556       .  S
C3           C10   1.556       .  S
C5            C8   1.368       .  D
C5          C166   1.474       .  S
C6            C9   1.368       .  D
C6          C170   1.474       .  S
C7           C10   1.368       .  D
C7          C162   1.472       .  S
C8          C176   1.461       .  S
C9          C177   1.461       .  S
C10         C174   1.463       .  S
C11          H12   1.101       .  S
C11          C17   1.557       .  S
C11          C16   1.557       .  S
C11          C15   1.557       .  S
C13          H14   1.094       .  S
C13          C19   1.522       .  S
C13          C18   1.522       .  S
C13          C20   1.521       .  S
C15          C18   1.370       .  D
C15         C155   1.464       .  S
C16          C19   1.371       .  D
C16         C158   1.465       .  S
C17          C20   1.370       .  D
C17         C159   1.463       .  S
C18         C147   1.478       .  S
C19         C151   1.478       .  S
C20         C143   1.479       .  S
C21         H556   1.111       .  S
C21         C383   1.551   1_545  S
C21         C560   1.551       .  S
C21         C915   1.551   1_545  S
H22        C1089   1.111       .  S
C23          H24   1.111       .  S
C23         C563   1.552       .  S
C23         C918   1.552   1_545  S
C23         C386   1.552   1_545  S
C25        C1267   1.551       .  S
C25          C28   1.370       .  D
C25         C178   1.463       .  S
C26        C1089   1.551       .  S
C26          C29   1.370       .  D
C26         C173   1.465       .  S
C27         C199   1.550       .  S
C27          C30   1.370       .  D
C27         C175   1.463       .  S
C28        C1269   1.552   1_455  S
C28         C157   1.466       .  S
C29        C1091   1.552       .  S
C29         C160   1.465       .  S
C30         C201   1.552       .  S
C30         C156   1.465       .  S
C31          H32   1.100       .  S
C31          C37   1.556       .  S
C31          C36   1.557       .  S
C31          C35   1.557       .  S
C33          H34   1.094       .  S
C33          C39   1.522       .  S
C33          C38   1.522       .  S
C33          C40   1.522       .  S
C35          C38   1.370       .  D
C35         C141   1.463       .  S
C36          C39   1.370       .  D
C36         C139   1.463       .  S
C37          C40   1.370       .  D
C37         C137   1.464       .  S
C38         C126   1.479       .  S
C39         C134   1.479       .  S
C40         C129   1.477       .  S
C41          H42   1.110       .  S
C41          C47   1.522       .  S
C41          C46   1.524       .  S
C41          C45   1.523       .  S
C43          H44   1.100       .  S
C43          C49   1.556       .  S
C43          C48   1.556       .  S
C43          C50   1.556       .  S
C45          C48   1.368       .  D
C45         C108   1.473       .  S
C46          C49   1.368       .  D
C46         C115   1.473       .  S
C47          C50   1.368       .  D
C47         C111   1.474       .  S
C48         C123   1.462       .  S
C49         C122   1.463       .  S
C50         C120   1.460       .  S
C51        H1120   1.111       .  S
C51          C57   1.550       .  S
C51        C1480   1.551   1_445  S
C51        C1123   1.550   1_455  S
H52         C585   1.111       .  S
C53          H54   1.111       .  S
C53          C60   1.552       .  S
C53        C1483   1.552   1_445  S
C53        C1126   1.552   1_455  S
C55         C585   1.550       .  S
C55          C58   1.370       .  D
C55         C121   1.465       .  S
C56         C763   1.551       .  S
C56          C59   1.370       .  D
C56         C119   1.462       .  S
C57          C60   1.370       .  D
C57         C124   1.464       .  S
C58         C587   1.553       .  S
C58         C140   1.465       .  S
C59         C765   1.552       .  S
C59         C138   1.466       .  S
C60         C142   1.465       .  S
Zn61         O65   1.908       .  S
Zn61        O956   1.922   1_545  S
Zn61        O604   1.923       .  S
Zn61        O433   1.924   1_545  S
Zn62       O1311   1.948       .  S
Zn62         O69   2.043       .  S
Zn62        O245   2.005   1_556  S
Zn62       O1141   1.994   1_456  S
Zn63       O1133   1.948       .  S
Zn63         O68   2.043       .  S
Zn63         O71   1.995   1_556  S
Zn63       O1142   2.007   1_556  S
Zn64        O243   1.947       .  S
Zn64         O75   2.008   1_556  S
Zn64         O76   2.040       .  S
Zn64        O250   1.993   1_556  S
O65        Zn952   1.947   1_545  S
O65        Zn597   1.948       .  S
O65        Zn420   1.947   1_545  S
O66       Zn1307   1.921       .  S
O66          C78   1.261       .  A
O67        Zn418   2.004   1_554  S
O67          C79   1.271   1_565  A
O68          C80   1.276       .  A
O69          C78   1.276       .  A
O70       Zn1129   1.923       .  S
O70          C80   1.261       .  A
O71          C79   1.272       .  A
O72        Zn420   1.993   1_544  S
O72          C81   1.271       .  A
O73        Zn596   1.993   1_554  S
O73          C82   1.271       .  A
O74        Zn597   2.006   1_554  S
O74          C81   1.271       .  A
O75          C82   1.271       .  A
O76          C83   1.275       .  A
O77        Zn239   1.924       .  S
O77          C83   1.261       .  A
C78         C152   1.462       .  S
C79         C107   1.458       .  S
C80         C144   1.462       .  S
C81         C116   1.458       .  S
C82         C112   1.459       .  S
C83         C148   1.461       .  S
Zn84         O88   1.948       .  S
Zn84         O93   2.003       .  S
Zn84        O100   2.041       .  S
Zn84        O445   1.995   1_545  S
Zn85        O800   1.947       .  S
Zn85         O90   1.993       .  S
Zn85         O96   2.040       .  S
Zn85        O626   2.007       .  S
Zn86        O622   1.946       .  S
Zn86         O97   2.042       .  S
Zn86        O625   1.992       .  S
Zn86        O450   2.009       .  S
Zn87         O88   1.909       .  S
Zn87         O99   1.925       .  S
Zn87       O1163   1.925   1_455  S
Zn87       O1522   1.922   1_445  S
O88       Zn1509   1.946   1_445  S
O88       Zn1154   1.947   1_455  S
O89        Zn262   1.995       .  S
O89         C101   1.271       .  A
O90         C102   1.271       .  A
O91       Zn1154   1.992   1_455  S
O91         C103   1.271       .  A
O92       Zn1153   2.006       .  S
O92         C101   1.271   1_655  A
O93         C103   1.270       .  A
O94        Zn264   2.008       .  S
O94         C102   1.271       .  A
O95        Zn621   1.926       .  S
O95         C104   1.261       .  A
O96         C105   1.275       .  A
O97         C104   1.275       .  A
O98        Zn799   1.921       .  S
O98         C105   1.261       .  A
O99         C106   1.261       .  A
O100        C106   1.275       .  A
C101        C169   1.459       .  S
C102        C165   1.459       .  S
C103        C161   1.457       .  S
C104        C133   1.462       .  S
C105        C130   1.461       .  S
C106        C125   1.462       .  S
C107        C108   1.343       .  D
C107        H109   1.087       .  S
C108        H110   1.087       .  S
C111        C112   1.344       .  D
C111        H113   1.087       .  S
C112        H114   1.087       .  S
C115        C116   1.344       .  D
C115        H117   1.087       .  S
C116        H118   1.087       .  S
C119        C120   1.216       .  T
C121        C122   1.217       .  T
C123        C124   1.217       .  T
C125        C126   1.353       .  D
C125        H127   1.084       .  S
C126        H128   1.086       .  S
C129        C130   1.353       .  D
C129        H131   1.086       .  S
C130        H132   1.084       .  S
C133        C134   1.353       .  D
C133        H135   1.084       .  S
C134        H136   1.086       .  S
C137        C138   1.218       .  T
C139        C140   1.217       .  T
C141        C142   1.217       .  T
C143        C144   1.353       .  D
C143        H145   1.086       .  S
C144        H146   1.084       .  S
C147        C148   1.353       .  D
C147        H149   1.086       .  S
C148        H150   1.084       .  S
C151        C152   1.354       .  D
C151        H153   1.086       .  S
C152        H154   1.084       .  S
C155        C156   1.218       .  T
C157        C158   1.218       .  T
C159        C160   1.217       .  T
C161        C162   1.343       .  D
C161        H163   1.087       .  S
C162        H164   1.087       .  S
C165        C166   1.344       .  D
C165        H167   1.087       .  S
C166        H168   1.087       .  S
C169        C170   1.343       .  D
C169        H171   1.087       .  S
C170        H172   1.087       .  S
C173        C174   1.217       .  T
C175        C176   1.216       .  T
C177        C178   1.216       .  T
C179        H180   1.110       .  S
C179        C185   1.524       .  S
C179        C184   1.523       .  S
C179        C183   1.523       .  S
C181        H182   1.100       .  S
C181        C187   1.557       .  S
C181        C186   1.556       .  S
C181        C188   1.556       .  S
C183        C186   1.368       .  D
C183        C344   1.474       .  S
C184        C187   1.368       .  D
C184        C348   1.474       .  S
C185        C188   1.368       .  D
C185        C340   1.472       .  S
C186        C354   1.462       .  S
C187        C355   1.461       .  S
C188        C352   1.463       .  S
C189        H190   1.100       .  S
C189        C195   1.557       .  S
C189        C194   1.557       .  S
C189        C193   1.557       .  S
C191        H192   1.094       .  S
C191        C197   1.522       .  S
C191        C196   1.522       .  S
C191        C198   1.521       .  S
C193        C196   1.370       .  D
C193        C333   1.464       .  S
C194        C197   1.371       .  D
C194        C336   1.465       .  S
C195        C198   1.370       .  D
C195        C337   1.463       .  S
C196        C325   1.478       .  S
C197        C329   1.479       .  S
C198        C321   1.479       .  S
C199        H734   1.111       .  S
C199        C738   1.550       .  S
C199        C559   1.550       .  S
H200       C1267   1.111       .  S
C201        H202   1.111       .  S
C201        C741   1.552       .  S
C201        C562   1.552       .  S
C203       C1445   1.551       .  S
C203        C206   1.370       .  D
C203        C356   1.463       .  S
C204       C1267   1.550       .  S
C204        C207   1.370       .  D
C204        C351   1.465       .  S
C205        C377   1.551       .  S
C205        C208   1.370       .  D
C205        C353   1.464       .  S
C206       C1447   1.552   1_455  S
C206        C335   1.467       .  S
C207       C1269   1.552   1_455  S
C207        C338   1.464       .  S
C208        C379   1.552       .  S
C208        C334   1.466       .  S
C209        H210   1.100       .  S
C209        C215   1.556       .  S
C209        C214   1.557       .  S
C209        C213   1.557       .  S
C211        H212   1.094       .  S
C211        C217   1.522       .  S
C211        C216   1.522       .  S
C211        C218   1.522       .  S
C213        C216   1.370       .  D
C213        C319   1.463       .  S
C214        C217   1.370       .  D
C214        C317   1.463       .  S
C215        C218   1.370       .  D
C215        C315   1.464       .  S
C216        C304   1.479       .  S
C217        C312   1.479       .  S
C218        C307   1.477       .  S
C219        H220   1.110       .  S
C219        C225   1.523       .  S
C219        C224   1.523       .  S
C219        C223   1.523       .  S
C221        H222   1.100       .  S
C221        C227   1.556       .  S
C221        C226   1.556       .  S
C221        C228   1.556       .  S
C223        C226   1.368       .  D
C223        C286   1.473       .  S
C224        C227   1.368       .  D
C224        C293   1.473       .  S
C225        C228   1.368       .  D
C225        C289   1.473       .  S
C226        C301   1.462       .  S
C227        C300   1.462       .  S
C228        C298   1.461       .  S
C229       H1298   1.111       .  S
C229        C235   1.550       .  S
C229       C1124   1.550   1_455  S
C229       C1301   1.550   1_455  S
H230        C763   1.111       .  S
C231        H232   1.111       .  S
C231       C1127   1.552   1_455  S
C231       C1304   1.552   1_455  S
C231        C238   1.552       .  S
C233        C763   1.550       .  S
C233        C236   1.370       .  D
C233        C299   1.464       .  S
C234        C941   1.551       .  S
C234        C237   1.370       .  D
C234        C297   1.463       .  S
C235        C238   1.370       .  D
C235        C302   1.464       .  S
C236        C765   1.552       .  S
C236        C318   1.464       .  S
C237        C943   1.552       .  S
C237        C316   1.466       .  S
C238        C320   1.465       .  S
Zn239       O243   1.909       .  S
Zn239       O600   1.922       .  S
Zn239       O782   1.924       .  S
Zn240      O1489   1.947       .  S
Zn240       O423   2.003   1_556  S
Zn240       O247   2.043       .  S
Zn240      O1319   1.994   1_456  S
Zn241      O1311   1.948       .  S
Zn241       O246   2.042       .  S
Zn241       O249   1.995   1_556  S
Zn241      O1320   2.007   1_556  S
Zn242       O421   1.947       .  S
Zn242       O428   1.993   1_556  S
Zn242       O253   2.007   1_556  S
Zn242       O254   2.040       .  S
O243       Zn596   1.948       .  S
O243       Zn775   1.948       .  S
O244      Zn1485   1.921       .  S
O244        C256   1.261       .  A
O245        C257   1.271       .  A
O246        C258   1.276       .  A
O247        C256   1.276       .  A
O248      Zn1307   1.924       .  S
O248        C258   1.261       .  A
O249        C257   1.272       .  A
O250        C259   1.271       .  A
O251       Zn774   1.993   1_554  S
O251        C260   1.271       .  A
O252       Zn775   2.007   1_554  S
O252        C259   1.271       .  A
O253        C260   1.271       .  A
O254        C261   1.275       .  A
O255       Zn417   1.924       .  S
O255        C261   1.261       .  A
C256        C330   1.462       .  S
C257        C285   1.458       .  S
C258        C322   1.462       .  S
C259        C294   1.458       .  S
C260        C290   1.459       .  S
C261        C326   1.461       .  S
Zn262       O266   1.947       .  S
Zn262       O271   2.003       .  S
Zn262       O278   2.043       .  S
Zn263       O978   1.947       .  S
Zn263       O268   1.993       .  S
Zn263       O804   2.007       .  S
Zn263       O274   2.039       .  S
Zn264       O800   1.947       .  S
Zn264       O803   1.992       .  S
Zn264       O275   2.041       .  S
Zn265       O266   1.909       .  S
Zn265      O1341   1.926   1_455  S
Zn265      O1166   1.922   1_455  S
Zn265       O277   1.925       .  S
O266      Zn1153   1.947   1_455  S
O266      Zn1332   1.947   1_455  S
O267       Zn440   1.996       .  S
O267        C279   1.271       .  A
O268        C280   1.271       .  A
O269      Zn1332   1.992   1_455  S
O269        C281   1.271       .  A
O270      Zn1331   2.007       .  S
O270        C279   1.271   1_655  A
O271        C281   1.270       .  A
O272       Zn442   2.008       .  S
O272        C280   1.271       .  A
O273       Zn799   1.926       .  S
O273        C282   1.261       .  A
O274        C283   1.275       .  A
O275        C282   1.275       .  A
O276       Zn977   1.922       .  S
O276        C283   1.261       .  A
O277        C284   1.261       .  A
O278        C284   1.275       .  A
C279        C347   1.460       .  S
C280        C343   1.459       .  S
C281        C339   1.457       .  S
C282        C311   1.462       .  S
C283        C308   1.461       .  S
C284        C303   1.463       .  S
C285        C286   1.343       .  D
C285        H287   1.087       .  S
C286        H288   1.087       .  S
C289        C290   1.344       .  D
C289        H291   1.087       .  S
C290        H292   1.087       .  S
C293        C294   1.343       .  D
C293        H295   1.087       .  S
C294        H296   1.087       .  S
C297        C298   1.216       .  T
C299        C300   1.217       .  T
C301        C302   1.217       .  T
C303        C304   1.353       .  D
C303        H305   1.084       .  S
C304        H306   1.086       .  S
C307        C308   1.352       .  D
C307        H309   1.086       .  S
C308        H310   1.084       .  S
C311        C312   1.353       .  D
C311        H313   1.084       .  S
C312        H314   1.086       .  S
C315        C316   1.218       .  T
C317        C318   1.217       .  T
C319        C320   1.217       .  T
C321        C322   1.353       .  D
C321        H323   1.086       .  S
C322        H324   1.084       .  S
C325        C326   1.353       .  D
C325        H327   1.086       .  S
C326        H328   1.084       .  S
C329        C330   1.354       .  D
C329        H331   1.086       .  S
C330        H332   1.084       .  S
C333        C334   1.218       .  T
C335        C336   1.218       .  T
C337        C338   1.217       .  T
C339        C340   1.343       .  D
C339        H341   1.087       .  S
C340        H342   1.087       .  S
C343        C344   1.344       .  D
C343        H345   1.087       .  S
C344        H346   1.087       .  S
C347        C348   1.344       .  D
C347        H349   1.087       .  S
C348        H350   1.087       .  S
C351        C352   1.217       .  T
C353        C354   1.217       .  T
C355        C356   1.216       .  T
C357        H358   1.110       .  S
C357        C363   1.524       .  S
C357        C362   1.523       .  S
C357        C361   1.523       .  S
C359        H360   1.100       .  S
C359        C365   1.557       .  S
C359        C364   1.557       .  S
C359        C366   1.556       .  S
C361        C364   1.368       .  D
C361        C522   1.474       .  S
C362        C365   1.368       .  D
C362        C526   1.474       .  S
C363        C366   1.368       .  D
C363        C518   1.473       .  S
C364        C532   1.462       .  S
C365        C533   1.461       .  S
C366        C530   1.463       .  S
C367        H368   1.100       .  S
C367        C373   1.557       .  S
C367        C372   1.557       .  S
C367        C371   1.557       .  S
C369        H370   1.094       .  S
C369        C375   1.521       .  S
C369        C374   1.522       .  S
C369        C376   1.521       .  S
C371        C374   1.370       .  D
C371        C511   1.464       .  S
C372        C375   1.371       .  D
C372        C514   1.464       .  S
C373        C376   1.370       .  D
C373        C515   1.463       .  S
C374        C503   1.478       .  S
C375        C507   1.479       .  S
C376        C499   1.479       .  S
C377        H912   1.111       .  S
C377        C916   1.551       .  S
C377        C737   1.551       .  S
H378       C1445   1.111       .  S
C379        H380   1.111       .  S
C379        C919   1.552       .  S
C379        C740   1.552       .  S
C381       C1089   1.551   1_565  S
C381        C384   1.370       .  D
C381        C534   1.463       .  S
C382       C1445   1.551       .  S
C382        C385   1.370       .  D
C382        C529   1.465       .  S
C383        C386   1.370       .  D
C383        C531   1.464       .  S
C384       C1091   1.552   1_565  S
C384        C513   1.466       .  S
C385       C1447   1.553   1_455  S
C385        C516   1.465       .  S
C386        C512   1.466       .  S
C387        H388   1.100       .  S
C387        C393   1.557       .  S
C387        C392   1.557       .  S
C387        C391   1.557       .  S
C389        H390   1.094       .  S
C389        C395   1.522       .  S
C389        C394   1.522       .  S
C389        C396   1.523       .  S
C391        C394   1.370       .  D
C391        C497   1.463       .  S
C392        C395   1.370       .  D
C392        C495   1.463       .  S
C393        C396   1.370       .  D
C393        C493   1.465       .  S
C394        C482   1.479       .  S
C395        C490   1.479       .  S
C396        C485   1.477       .  S
C397        H398   1.110       .  S
C397        C403   1.522       .  S
C397        C402   1.523       .  S
C397        C401   1.523       .  S
C399        H400   1.100       .  S
C399        C405   1.556       .  S
C399        C404   1.556       .  S
C399        C406   1.556       .  S
C401        C404   1.368       .  D
C401        C464   1.473       .  S
C402        C405   1.368       .  D
C402        C471   1.473       .  S
C403        C406   1.368       .  D
C403        C467   1.474       .  S
C404        C479   1.462       .  S
C405        C478   1.462       .  S
C406        C476   1.460       .  S
C407       H1476   1.111       .  S
C407        C413   1.551       .  S
C407       C1302   1.551   1_455  S
C407       C1479   1.550   1_455  S
H408        C941   1.111       .  S
C409        H410   1.111       .  S
C409       C1305   1.552   1_455  S
C409       C1482   1.553   1_455  S
C409        C416   1.552       .  S
C411        C941   1.550       .  S
C411        C414   1.370       .  D
C411        C477   1.464       .  S
C412        C585   1.551   1_565  S
C412        C415   1.370       .  D
C412        C475   1.462       .  S
C413        C416   1.370       .  D
C413        C480   1.464       .  S
C414        C943   1.552       .  S
C414        C496   1.465       .  S
C415        C587   1.552   1_565  S
C415        C494   1.467       .  S
C416        C498   1.465       .  S
Zn417       O421   1.909       .  S
Zn417       O778   1.921       .  S
Zn417       O960   1.924       .  S
Zn418      O1133   1.947   1_565  S
Zn418       O425   2.043       .  S
Zn418      O1497   1.994   1_456  S
Zn419      O1489   1.947       .  S
Zn419       O424   2.042       .  S
Zn419       O427   1.996   1_556  S
Zn419      O1498   2.006   1_556  S
Zn420       O431   2.008   1_556  S
Zn420       O432   2.041       .  S
O421       Zn774   1.947       .  S
O421       Zn953   1.947       .  S
O422      Zn1129   1.921   1_565  S
O422        C434   1.261       .  A
O423        C435   1.270       .  A
O424        C436   1.276       .  A
O425        C434   1.276       .  A
O426      Zn1485   1.923       .  S
O426        C436   1.261       .  A
O427        C435   1.272       .  A
O428        C437   1.271       .  A
O429       Zn952   1.994   1_554  S
O429        C438   1.271       .  A
O430       Zn953   2.007   1_554  S
O430        C437   1.271       .  A
O431        C438   1.271       .  A
O432        C439   1.275       .  A
O433        C439   1.261       .  A
C434        C508   1.462       .  S
C435        C463   1.458       .  S
C436        C500   1.462       .  S
C437        C472   1.459       .  S
C438        C468   1.459       .  S
C439        C504   1.461       .  S
Zn440       O444   1.947   1_455  S
Zn440       O449   2.003       .  S
Zn440       O456   2.043       .  S
Zn441       O622   1.947   1_565  S
Zn441       O446   1.993       .  S
Zn441       O982   2.006       .  S
Zn441       O452   2.039       .  S
Zn442       O978   1.947       .  S
Zn442       O981   1.992       .  S
Zn442       O453   2.042       .  S
Zn443       O444   1.908   1_455  S
Zn443      O1519   1.926   1_455  S
Zn443      O1344   1.921   1_455  S
Zn443       O455   1.925       .  S
O444      Zn1331   1.947       .  S
O444      Zn1510   1.947       .  S
O445        C457   1.271       .  A
O446        C458   1.271       .  A
O447      Zn1510   1.993   1_455  S
O447        C459   1.271       .  A
O448      Zn1509   2.006       .  S
O448        C457   1.271   1_655  A
O449        C459   1.271       .  A
O450        C458   1.271   1_545  A
O451       Zn977   1.926       .  S
O451        C460   1.261       .  A
O452        C461   1.275       .  A
O453        C460   1.275       .  A
O454       Zn621   1.922   1_565  S
O454        C461   1.261       .  A
O455        C462   1.261       .  A
O456        C462   1.276       .  A
C457        C525   1.459       .  S
C458        C521   1.459       .  S
C459        C517   1.457       .  S
C460        C489   1.462       .  S
C461        C486   1.461       .  S
C462        C481   1.463       .  S
C463        C464   1.343       .  D
C463        H465   1.087       .  S
C464        H466   1.087       .  S
C467        C468   1.344       .  D
C467        H469   1.087       .  S
C468        H470   1.087       .  S
C471        C472   1.344       .  D
C471        H473   1.087       .  S
C472        H474   1.087       .  S
C475        C476   1.216       .  T
C477        C478   1.217       .  T
C479        C480   1.217       .  T
C481        C482   1.353       .  D
C481        H483   1.084       .  S
C482        H484   1.086       .  S
C485        C486   1.353       .  D
C485        H487   1.086       .  S
C486        H488   1.084       .  S
C489        C490   1.353       .  D
C489        H491   1.084       .  S
C490        H492   1.086       .  S
C493        C494   1.219       .  T
C495        C496   1.217       .  T
C497        C498   1.218       .  T
C499        C500   1.353       .  D
C499        H501   1.086       .  S
C500        H502   1.084       .  S
C503        C504   1.353       .  D
C503        H505   1.086       .  S
C504        H506   1.084       .  S
C507        C508   1.354       .  D
C507        H509   1.086       .  S
C508        H510   1.084       .  S
C511        C512   1.218       .  T
C513        C514   1.218       .  T
C515        C516   1.217       .  T
C517        C518   1.343       .  D
C517        H519   1.087       .  S
C518        H520   1.087       .  S
C521        C522   1.344       .  D
C521        H523   1.087       .  S
C522        H524   1.087       .  S
C525        C526   1.343       .  D
C525        H527   1.087       .  S
C526        H528   1.087       .  S
C529        C530   1.218       .  T
C531        C532   1.217       .  T
C533        C534   1.217       .  T
C535        H536   1.110       .  S
C535        C541   1.524       .  S
C535        C540   1.523       .  S
C535        C539   1.523       .  S
C537        H538   1.100       .  S
C537        C543   1.556       .  S
C537        C542   1.557       .  S
C537        C544   1.556       .  S
C539        C542   1.368       .  D
C539        C700   1.474       .  S
C540        C543   1.368       .  D
C540        C704   1.474       .  S
C541        C544   1.368       .  D
C541        C696   1.472       .  S
C542        C710   1.462       .  S
C543        C711   1.461       .  S
C544        C708   1.463       .  S
C545        H546   1.100       .  S
C545        C551   1.557       .  S
C545        C550   1.557       .  S
C545        C549   1.557       .  S
C547        H548   1.094       .  S
C547        C553   1.522       .  S
C547        C552   1.522       .  S
C547        C554   1.521       .  S
C549        C552   1.370       .  D
C549        C689   1.464       .  S
C550        C553   1.370       .  D
C550        C692   1.464       .  S
C551        C554   1.370       .  D
C551        C693   1.463       .  S
C552        C681   1.478       .  S
C553        C685   1.478       .  S
C554        C677   1.479       .  S
C555       H1090   1.111       .  S
C555        C917   1.551   1_545  S
C555       C1094   1.550       .  S
C555       C1449   1.551   1_545  S
C557        H558   1.111       .  S
C557       C1097   1.552       .  S
C557       C1452   1.552   1_545  S
C557        C920   1.552   1_545  S
C559        C562   1.370       .  D
C559        C712   1.463       .  S
C560        C563   1.370       .  D
C560        C707   1.465       .  S
C561        C733   1.551       .  S
C561        C564   1.370       .  D
C561        C709   1.464       .  S
C562        C691   1.466       .  S
C563        C694   1.464       .  S
C564        C735   1.552       .  S
C564        C690   1.466       .  S
C565        H566   1.100       .  S
C565        C571   1.556       .  S
C565        C570   1.557       .  S
C565        C569   1.557       .  S
C567        H568   1.094       .  S
C567        C573   1.522       .  S
C567        C572   1.522       .  S
C567        C574   1.522       .  S
C569        C572   1.370       .  D
C569        C675   1.464       .  S
C570        C573   1.370       .  D
C570        C673   1.463       .  S
C571        C574   1.370       .  D
C571        C671   1.464       .  S
C572        C660   1.479       .  S
C573        C668   1.479       .  S
C574        C663   1.477       .  S
C575        H576   1.110       .  S
C575        C581   1.522       .  S
C575        C580   1.523       .  S
C575        C579   1.523       .  S
C577        H578   1.100       .  S
C577        C583   1.556       .  S
C577        C582   1.556       .  S
C577        C584   1.556       .  S
C579        C582   1.368       .  D
C579        C642   1.473       .  S
C580        C583   1.368       .  D
C580        C649   1.473       .  S
C581        C584   1.368       .  D
C581        C645   1.473       .  S
C582        C657   1.462       .  S
C583        C656   1.462       .  S
C584        C654   1.461       .  S
C585        C591   1.550       .  S
H586       C1119   1.111       .  S
C587        H588   1.111       .  S
C587        C594   1.552       .  S
C589       C1119   1.550       .  S
C589        C592   1.370       .  D
C589        C655   1.464       .  S
C590       C1297   1.550       .  S
C590        C593   1.370       .  D
C590        C653   1.462       .  S
C591        C594   1.370       .  D
C591        C658   1.464       .  S
C592       C1121   1.552       .  S
C592        C674   1.465       .  S
C593       C1299   1.552       .  S
C593        C672   1.466       .  S
C594        C676   1.465       .  S
Zn595       O599   1.908       .  S
Zn595      O1490   1.921   1_545  S
Zn595      O1138   1.923       .  S
Zn595       O967   1.924   1_545  S
Zn596       O779   2.004   1_556  S
Zn596       O603   2.043       .  S
Zn597       O602   2.042       .  S
Zn597       O605   1.996   1_556  S
Zn598       O777   1.947       .  S
Zn598       O784   1.993   1_556  S
Zn598       O609   2.007   1_556  S
Zn598       O610   2.040       .  S
O599      Zn1486   1.947   1_545  S
O599      Zn1131   1.948       .  S
O599       Zn954   1.947   1_545  S
O600        C612   1.261       .  A
O601       Zn952   2.004   1_554  S
O601        C613   1.271   1_565  A
O602        C614   1.276       .  A
O603        C612   1.276       .  A
O604        C614   1.261       .  A
O605        C613   1.272       .  A
O606       Zn954   1.992   1_544  S
O606        C615   1.271       .  A
O607      Zn1130   1.993   1_554  S
O607        C616   1.271       .  A
O608      Zn1131   2.006   1_554  S
O608        C615   1.271       .  A
O609        C616   1.271       .  A
O610        C617   1.275       .  A
O611       Zn773   1.924       .  S
O611        C617   1.261       .  A
C612        C686   1.462       .  S
C613        C641   1.458       .  S
C614        C678   1.462       .  S
C615        C650   1.458       .  S
C616        C646   1.459       .  S
C617        C682   1.461       .  S
Zn618       O622   1.947       .  S
Zn618       O979   1.995   1_545  S
Zn618       O627   2.003       .  S
Zn618       O634   2.042       .  S
Zn619      O1334   1.947       .  S
Zn619       O624   1.993       .  S
Zn619      O1160   2.007       .  S
Zn619       O630   2.040       .  S
Zn620      O1156   1.947       .  S
Zn620      O1159   1.992       .  S
Zn620       O984   2.009       .  S
Zn620       O631   2.042       .  S
Zn621       O622   1.909       .  S
Zn621       O633   1.925       .  S
O623       Zn796   1.996       .  S
O623        C635   1.271       .  A
O624        C636   1.271       .  A
O625        C637   1.271       .  A
O626        C635   1.271       .  A
O627        C637   1.270       .  A
O628       Zn798   2.009       .  S
O628        C636   1.271       .  A
O629      Zn1155   1.926       .  S
O629        C638   1.261       .  A
O630        C639   1.275       .  A
O631        C638   1.275       .  A
O632      Zn1333   1.921       .  S
O632        C639   1.261       .  A
O633        C640   1.261       .  A
O634        C640   1.275       .  A
C635        C703   1.459       .  S
C636        C699   1.460       .  S
C637        C695   1.457       .  S
C638        C667   1.462       .  S
C639        C664   1.461       .  S
C640        C659   1.463       .  S
C641        C642   1.343       .  D
C641        H643   1.087       .  S
C642        H644   1.087       .  S
C645        C646   1.343       .  D
C645        H647   1.087       .  S
C646        H648   1.087       .  S
C649        C650   1.343       .  D
C649        H651   1.087       .  S
C650        H652   1.087       .  S
C653        C654   1.216       .  T
C655        C656   1.217       .  T
C657        C658   1.217       .  T
C659        C660   1.353       .  D
C659        H661   1.084       .  S
C660        H662   1.086       .  S
C663        C664   1.353       .  D
C663        H665   1.086       .  S
C664        H666   1.084       .  S
C667        C668   1.353       .  D
C667        H669   1.084       .  S
C668        H670   1.086       .  S
C671        C672   1.218       .  T
C673        C674   1.217       .  T
C675        C676   1.218       .  T
C677        C678   1.353       .  D
C677        H679   1.086       .  S
C678        H680   1.084       .  S
C681        C682   1.353       .  D
C681        H683   1.086       .  S
C682        H684   1.084       .  S
C685        C686   1.354       .  D
C685        H687   1.086       .  S
C686        H688   1.084       .  S
C689        C690   1.218       .  T
C691        C692   1.218       .  T
C693        C694   1.217       .  T
C695        C696   1.343       .  D
C695        H697   1.087       .  S
C696        H698   1.087       .  S
C699        C700   1.344       .  D
C699        H701   1.087       .  S
C700        H702   1.087       .  S
C703        C704   1.344       .  D
C703        H705   1.087       .  S
C704        H706   1.087       .  S
C707        C708   1.217       .  T
C709        C710   1.217       .  T
C711        C712   1.216       .  T
C713        H714   1.110       .  S
C713        C719   1.524       .  S
C713        C718   1.523       .  S
C713        C717   1.523       .  S
C715        H716   1.100       .  S
C715        C721   1.557       .  S
C715        C720   1.556       .  S
C715        C722   1.556       .  S
C717        C720   1.368       .  D
C717        C878   1.474       .  S
C718        C721   1.368       .  D
C718        C882   1.474       .  S
C719        C722   1.368       .  D
C719        C874   1.472       .  S
C720        C888   1.462       .  S
C721        C889   1.461       .  S
C722        C886   1.463       .  S
C723        H724   1.100       .  S
C723        C729   1.557       .  S
C723        C728   1.557       .  S
C723        C727   1.557       .  S
C725        H726   1.094       .  S
C725        C731   1.522       .  S
C725        C730   1.522       .  S
C725        C732   1.521       .  S
C727        C730   1.370       .  D
C727        C867   1.464       .  S
C728        C731   1.371       .  D
C728        C870   1.465       .  S
C729        C732   1.370       .  D
C729        C871   1.463       .  S
C730        C859   1.478       .  S
C731        C863   1.478       .  S
C732        C855   1.479       .  S
C733       H1268   1.111       .  S
C733       C1272   1.550       .  S
C733       C1093   1.551       .  S
C735        H736   1.111       .  S
C735       C1275   1.552       .  S
C735       C1096   1.552       .  S
C737        C740   1.370       .  D
C737        C890   1.463       .  S
C738        C741   1.370       .  D
C738        C885   1.465       .  S
C739        C911   1.551       .  S
C739        C742   1.370       .  D
C739        C887   1.464       .  S
C740        C869   1.466       .  S
C741        C872   1.464       .  S
C742        C913   1.552       .  S
C742        C868   1.466       .  S
C743        H744   1.100       .  S
C743        C749   1.556       .  S
C743        C748   1.557       .  S
C743        C747   1.557       .  S
C745        H746   1.094       .  S
C745        C751   1.522       .  S
C745        C750   1.522       .  S
C745        C752   1.522       .  S
C747        C750   1.371       .  D
C747        C853   1.463       .  S
C748        C751   1.370       .  D
C748        C851   1.463       .  S
C749        C752   1.370       .  D
C749        C849   1.465       .  S
C750        C838   1.479       .  S
C751        C846   1.479       .  S
C752        C841   1.477       .  S
C753        H754   1.110       .  S
C753        C759   1.523       .  S
C753        C758   1.523       .  S
C753        C757   1.523       .  S
C755        H756   1.100       .  S
C755        C761   1.556       .  S
C755        C760   1.556       .  S
C755        C762   1.556       .  S
C757        C760   1.368       .  D
C757        C820   1.473       .  S
C758        C761   1.368       .  D
C758        C827   1.473       .  S
C759        C762   1.368       .  D
C759        C823   1.474       .  S
C760        C835   1.462       .  S
C761        C834   1.462       .  S
C762        C832   1.461       .  S
C763        C769   1.550       .  S
H764       C1297   1.111       .  S
C765        H766   1.111       .  S
C765        C772   1.552       .  S
C767       C1297   1.550       .  S
C767        C770   1.370       .  D
C767        C833   1.464       .  S
C768       C1475   1.551       .  S
C768        C771   1.370       .  D
C768        C831   1.463       .  S
C769        C772   1.370       .  D
C769        C836   1.464       .  S
C770       C1299   1.552       .  S
C770        C852   1.465       .  S
C771       C1477   1.552       .  S
C771        C850   1.466       .  S
C772        C854   1.465       .  S
Zn773       O777   1.909       .  S
Zn773      O1134   1.921       .  S
Zn773      O1316   1.924       .  S
Zn774       O957   2.003   1_556  S
Zn774       O781   2.043       .  S
Zn775       O780   2.042       .  S
Zn775       O783   1.995   1_556  S
Zn776       O955   1.947       .  S
Zn776       O962   1.993   1_556  S
Zn776       O787   2.008   1_556  S
Zn776       O788   2.040       .  S
O777      Zn1130   1.947       .  S
O777      Zn1309   1.947       .  S
O778        C790   1.261       .  A
O779        C791   1.271       .  A
O780        C792   1.276       .  A
O781        C790   1.276       .  A
O782        C792   1.261       .  A
O783        C791   1.272       .  A
O784        C793   1.271       .  A
O785      Zn1308   1.993   1_554  S
O785        C794   1.271       .  A
O786      Zn1309   2.007   1_554  S
O786        C793   1.271       .  A
O787        C794   1.271       .  A
O788        C795   1.275       .  A
O789       Zn951   1.924       .  S
O789        C795   1.261       .  A
C790        C864   1.462       .  S
C791        C819   1.458       .  S
C792        C856   1.462       .  S
C793        C828   1.458       .  S
C794        C824   1.459       .  S
C795        C860   1.461       .  S
Zn796       O800   1.947       .  S
Zn796       O805   2.003       .  S
Zn796       O812   2.044       .  S
Zn797      O1512   1.947       .  S
Zn797       O802   1.993       .  S
Zn797      O1338   2.008       .  S
Zn797       O808   2.040       .  S
Zn798      O1334   1.947       .  S
Zn798      O1337   1.992       .  S
Zn798       O809   2.041       .  S
Zn799       O800   1.908       .  S
Zn799       O811   1.925       .  S
O801       Zn974   1.996       .  S
O801        C813   1.271       .  A
O802        C814   1.271       .  A
O803        C815   1.271       .  A
O804        C813   1.271       .  A
O805        C815   1.271       .  A
O806       Zn976   2.008       .  S
O806        C814   1.271       .  A
O807      Zn1333   1.925       .  S
O807        C816   1.261       .  A
O808        C817   1.275       .  A
O809        C816   1.275       .  A
O810      Zn1511   1.922       .  S
O810        C817   1.261       .  A
O811        C818   1.261       .  A
O812        C818   1.276       .  A
C813        C881   1.459       .  S
C814        C877   1.459       .  S
C815        C873   1.457       .  S
C816        C845   1.462       .  S
C817        C842   1.461       .  S
C818        C837   1.463       .  S
C819        C820   1.343       .  D
C819        H821   1.087       .  S
C820        H822   1.087       .  S
C823        C824   1.344       .  D
C823        H825   1.087       .  S
C824        H826   1.087       .  S
C827        C828   1.343       .  D
C827        H829   1.087       .  S
C828        H830   1.087       .  S
C831        C832   1.216       .  T
C833        C834   1.217       .  T
C835        C836   1.217       .  T
C837        C838   1.354       .  D
C837        H839   1.084       .  S
C838        H840   1.086       .  S
C841        C842   1.353       .  D
C841        H843   1.086       .  S
C842        H844   1.084       .  S
C845        C846   1.353       .  D
C845        H847   1.084       .  S
C846        H848   1.086       .  S
C849        C850   1.218       .  T
C851        C852   1.217       .  T
C853        C854   1.217       .  T
C855        C856   1.353       .  D
C855        H857   1.086       .  S
C856        H858   1.084       .  S
C859        C860   1.353       .  D
C859        H861   1.086       .  S
C860        H862   1.084       .  S
C863        C864   1.354       .  D
C863        H865   1.086       .  S
C864        H866   1.084       .  S
C867        C868   1.218       .  T
C869        C870   1.218       .  T
C871        C872   1.217       .  T
C873        C874   1.343       .  D
C873        H875   1.087       .  S
C874        H876   1.087       .  S
C877        C878   1.344       .  D
C877        H879   1.087       .  S
C878        H880   1.087       .  S
C881        C882   1.344       .  D
C881        H883   1.087       .  S
C882        H884   1.087       .  S
C885        C886   1.217       .  T
C887        C888   1.217       .  T
C889        C890   1.216       .  T
C891        H892   1.110       .  S
C891        C897   1.524       .  S
C891        C896   1.523       .  S
C891        C895   1.523       .  S
C893        H894   1.100       .  S
C893        C899   1.557       .  S
C893        C898   1.557       .  S
C893        C900   1.556       .  S
C895        C898   1.368       .  D
C895       C1056   1.474       .  S
C896        C899   1.368       .  D
C896       C1060   1.474       .  S
C897        C900   1.368       .  D
C897       C1052   1.472       .  S
C898       C1066   1.462       .  S
C899       C1067   1.461       .  S
C900       C1064   1.463       .  S
C901        H902   1.100       .  S
C901        C907   1.557       .  S
C901        C906   1.557       .  S
C901        C905   1.557       .  S
C903        H904   1.094       .  S
C903        C909   1.522       .  S
C903        C908   1.522       .  S
C903        C910   1.521       .  S
C905        C908   1.370       .  D
C905       C1045   1.464       .  S
C906        C909   1.371       .  D
C906       C1048   1.464       .  S
C907        C910   1.370       .  D
C907       C1049   1.463       .  S
C908       C1037   1.478       .  S
C909       C1041   1.479       .  S
C910       C1033   1.479       .  S
C911       H1446   1.111       .  S
C911       C1450   1.551       .  S
C911       C1271   1.551       .  S
C913        H914   1.111       .  S
C913       C1453   1.553       .  S
C913       C1274   1.552       .  S
C915        C918   1.370       .  D
C915       C1068   1.463       .  S
C916        C919   1.370       .  D
C916       C1063   1.465       .  S
C917        C920   1.370       .  D
C917       C1065   1.464       .  S
C918       C1047   1.466       .  S
C919       C1050   1.464       .  S
C920       C1046   1.466       .  S
C921        H922   1.100       .  S
C921        C927   1.556       .  S
C921        C926   1.557       .  S
C921        C925   1.557       .  S
C923        H924   1.094       .  S
C923        C929   1.522       .  S
C923        C928   1.522       .  S
C923        C930   1.522       .  S
C925        C928   1.370       .  D
C925       C1031   1.463       .  S
C926        C929   1.370       .  D
C926       C1029   1.463       .  S
C927        C930   1.370       .  D
C927       C1027   1.465       .  S
C928       C1016   1.479       .  S
C929       C1024   1.479       .  S
C930       C1019   1.477       .  S
C931        H932   1.110       .  S
C931        C937   1.522       .  S
C931        C936   1.523       .  S
C931        C935   1.523       .  S
C933        H934   1.100       .  S
C933        C939   1.556       .  S
C933        C938   1.556       .  S
C933        C940   1.556       .  S
C935        C938   1.368       .  D
C935        C998   1.473       .  S
C936        C939   1.368       .  D
C936       C1005   1.473       .  S
C937        C940   1.368       .  D
C937       C1001   1.474       .  S
C938       C1013   1.462       .  S
C939       C1012   1.462       .  S
C940       C1010   1.460       .  S
C941        C947   1.550       .  S
H942       C1475   1.111       .  S
C943        H944   1.111       .  S
C943        C950   1.552       .  S
C945       C1475   1.550       .  S
C945        C948   1.370       .  D
C945       C1011   1.464       .  S
C946       C1119   1.550   1_565  S
C946        C949   1.370       .  D
C946       C1009   1.462       .  S
C947        C950   1.370       .  D
C947       C1014   1.464       .  S
C948       C1477   1.552       .  S
C948       C1030   1.465       .  S
C949       C1121   1.552   1_565  S
C949       C1028   1.466       .  S
C950       C1032   1.465       .  S
Zn951       O955   1.908       .  S
Zn951      O1312   1.921       .  S
Zn951      O1494   1.924       .  S
Zn952       O959   2.043       .  S
Zn953       O958   2.043       .  S
Zn953       O961   1.995   1_556  S
Zn954       O965   2.007   1_556  S
Zn954       O966   2.040       .  S
O955      Zn1308   1.947       .  S
O955      Zn1487   1.947       .  S
O956        C968   1.261       .  A
O957        C969   1.270       .  A
O958        C970   1.276       .  A
O959        C968   1.276       .  A
O960        C970   1.261       .  A
O961        C969   1.272       .  A
O962        C971   1.271       .  A
O963      Zn1486   1.994   1_554  S
O963        C972   1.271       .  A
O964      Zn1487   2.007   1_554  S
O964        C971   1.271       .  A
O965        C972   1.271       .  A
O966        C973   1.275       .  A
O967        C973   1.261       .  A
C968       C1042   1.462       .  S
C969        C997   1.458       .  S
C970       C1034   1.462       .  S
C971       C1006   1.458       .  S
C972       C1002   1.459       .  S
C973       C1038   1.461       .  S
Zn974       O978   1.947       .  S
Zn974       O983   2.004       .  S
Zn974       O990   2.043       .  S
Zn975      O1156   1.947   1_565  S
Zn975       O980   1.993       .  S
Zn975      O1516   2.006       .  S
Zn975       O986   2.039       .  S
Zn976      O1512   1.947       .  S
Zn976      O1515   1.993       .  S
Zn976       O987   2.042       .  S
Zn977       O978   1.908       .  S
Zn977       O989   1.925       .  S
O979        C991   1.271       .  A
O980        C992   1.271       .  A
O981        C993   1.271       .  A
O982        C991   1.271       .  A
O983        C993   1.271       .  A
O984        C992   1.271   1_545  A
O985      Zn1511   1.925       .  S
O985        C994   1.261       .  A
O986        C995   1.275       .  A
O987        C994   1.275       .  A
O988      Zn1155   1.922   1_565  S
O988        C995   1.261       .  A
O989        C996   1.261       .  A
O990        C996   1.276       .  A
C991       C1059   1.459       .  S
C992       C1055   1.459       .  S
C993       C1051   1.457       .  S
C994       C1023   1.462       .  S
C995       C1020   1.461       .  S
C996       C1015   1.463       .  S
C997        C998   1.343       .  D
C997        H999   1.087       .  S
C998       H1000   1.087       .  S
C1001      C1002   1.344       .  D
C1001      H1003   1.087       .  S
C1002      H1004   1.087       .  S
C1005      C1006   1.343       .  D
C1005      H1007   1.087       .  S
C1006      H1008   1.087       .  S
C1009      C1010   1.216       .  T
C1011      C1012   1.217       .  T
C1013      C1014   1.217       .  T
C1015      C1016   1.353       .  D
C1015      H1017   1.084       .  S
C1016      H1018   1.086       .  S
C1019      C1020   1.353       .  D
C1019      H1021   1.086       .  S
C1020      H1022   1.084       .  S
C1023      C1024   1.353       .  D
C1023      H1025   1.084       .  S
C1024      H1026   1.086       .  S
C1027      C1028   1.218       .  T
C1029      C1030   1.217       .  T
C1031      C1032   1.217       .  T
C1033      C1034   1.353       .  D
C1033      H1035   1.086       .  S
C1034      H1036   1.084       .  S
C1037      C1038   1.353       .  D
C1037      H1039   1.086       .  S
C1038      H1040   1.084       .  S
C1041      C1042   1.354       .  D
C1041      H1043   1.086       .  S
C1042      H1044   1.084       .  S
C1045      C1046   1.218       .  T
C1047      C1048   1.218       .  T
C1049      C1050   1.217       .  T
C1051      C1052   1.343       .  D
C1051      H1053   1.087       .  S
C1052      H1054   1.087       .  S
C1055      C1056   1.344       .  D
C1055      H1057   1.087       .  S
C1056      H1058   1.087       .  S
C1059      C1060   1.343       .  D
C1059      H1061   1.087       .  S
C1060      H1062   1.087       .  S
C1063      C1064   1.218       .  T
C1065      C1066   1.217       .  T
C1067      C1068   1.216       .  T
C1069      H1070   1.110       .  S
C1069      C1075   1.524       .  S
C1069      C1074   1.523       .  S
C1069      C1073   1.523       .  S
C1071      H1072   1.101       .  S
C1071      C1077   1.556       .  S
C1071      C1076   1.557       .  S
C1071      C1078   1.556       .  S
C1073      C1076   1.368       .  D
C1073      C1234   1.474       .  S
C1074      C1077   1.368       .  D
C1074      C1238   1.474       .  S
C1075      C1078   1.368       .  D
C1075      C1230   1.472       .  S
C1076      C1244   1.462       .  S
C1077      C1245   1.461       .  S
C1078      C1242   1.463       .  S
C1079      H1080   1.101       .  S
C1079      C1085   1.557       .  S
C1079      C1084   1.557       .  S
C1079      C1083   1.557       .  S
C1081      H1082   1.094       .  S
C1081      C1087   1.522       .  S
C1081      C1086   1.522       .  S
C1081      C1088   1.521       .  S
C1083      C1086   1.370       .  D
C1083      C1223   1.464       .  S
C1084      C1087   1.371       .  D
C1084      C1226   1.465       .  S
C1085      C1088   1.370       .  D
C1085      C1227   1.463       .  S
C1086      C1215   1.478       .  S
C1087      C1219   1.478       .  S
C1088      C1211   1.479       .  S
C1089      C1451   1.551   1_445  S
C1091      H1092   1.111       .  S
C1091      C1454   1.552   1_445  S
C1093      C1096   1.370       .  D
C1093      C1246   1.463       .  S
C1094      C1097   1.370       .  D
C1094      C1241   1.465       .  S
C1095      C1267   1.550   1_655  S
C1095      C1098   1.370       .  D
C1095      C1243   1.464       .  S
C1096      C1225   1.466       .  S
C1097      C1228   1.464       .  S
C1098      C1269   1.552       .  S
C1098      C1224   1.465       .  S
C1099      H1100   1.100       .  S
C1099      C1105   1.556       .  S
C1099      C1104   1.557       .  S
C1099      C1103   1.557       .  S
C1101      H1102   1.094       .  S
C1101      C1107   1.522       .  S
C1101      C1106   1.522       .  S
C1101      C1108   1.522       .  S
C1103      C1106   1.370       .  D
C1103      C1209   1.463       .  S
C1104      C1107   1.370       .  D
C1104      C1207   1.463       .  S
C1105      C1108   1.370       .  D
C1105      C1205   1.464       .  S
C1106      C1194   1.479       .  S
C1107      C1202   1.479       .  S
C1108      C1197   1.477       .  S
C1109      H1110   1.110       .  S
C1109      C1115   1.523       .  S
C1109      C1114   1.524       .  S
C1109      C1113   1.523       .  S
C1111      H1112   1.100       .  S
C1111      C1117   1.556       .  S
C1111      C1116   1.556       .  S
C1111      C1118   1.556       .  S
C1113      C1116   1.368       .  D
C1113      C1176   1.473       .  S
C1114      C1117   1.368       .  D
C1114      C1183   1.473       .  S
C1115      C1118   1.368       .  D
C1115      C1179   1.474       .  S
C1116      C1191   1.462       .  S
C1117      C1190   1.463       .  S
C1118      C1188   1.461       .  S
C1119      C1125   1.550       .  S
C1121      H1122   1.111       .  S
C1121      C1128   1.552       .  S
C1123      C1126   1.370       .  D
C1123      C1189   1.464       .  S
C1124      C1127   1.370       .  D
C1124      C1187   1.463       .  S
C1125      C1128   1.370       .  D
C1125      C1192   1.464       .  S
C1126      C1208   1.465       .  S
C1127      C1206   1.466       .  S
C1128      C1210   1.465       .  S
Zn1129     O1133   1.909       .  S
Zn1129     O1501   1.924   1_445  S
Zn1130     O1313   2.004   1_556  S
Zn1130     O1137   2.043       .  S
Zn1131     O1136   2.043       .  S
Zn1131     O1139   1.995   1_556  S
Zn1132     O1311   1.947   1_655  S
Zn1132     O1318   1.993   1_556  S
Zn1132     O1143   2.007   1_556  S
Zn1132     O1144   2.041       .  S
O1133     Zn1488   1.947   1_445  S
O1134      C1146   1.261       .  A
O1135     Zn1486   2.004   1_554  S
O1135      C1147   1.271   1_565  A
O1136      C1148   1.276       .  A
O1137      C1146   1.276       .  A
O1138      C1148   1.261       .  A
O1139      C1147   1.272       .  A
O1140     Zn1488   1.993   1_544  S
O1140      C1149   1.271       .  A
O1141      C1150   1.271       .  A
O1142      C1149   1.271   1_455  A
O1143      C1150   1.271       .  A
O1144      C1151   1.275       .  A
O1145     Zn1307   1.924   1_655  S
O1145      C1151   1.261       .  A
C1146      C1220   1.462       .  S
C1147      C1175   1.458       .  S
C1148      C1212   1.462       .  S
C1149      C1184   1.458       .  S
C1150      C1180   1.459       .  S
C1151      C1216   1.461       .  S
Zn1152     O1156   1.948       .  S
Zn1152     O1513   1.995   1_545  S
Zn1152     O1161   2.003       .  S
Zn1152     O1168   2.042       .  S
Zn1153     O1158   1.993       .  S
Zn1153     O1164   2.039       .  S
Zn1154     O1518   2.009       .  S
Zn1154     O1165   2.042       .  S
Zn1155     O1156   1.909       .  S
Zn1155     O1167   1.925       .  S
O1157     Zn1330   1.995       .  S
O1157      C1169   1.271       .  A
O1158      C1170   1.271       .  A
O1159      C1171   1.271       .  A
O1160      C1169   1.271       .  A
O1161      C1171   1.271       .  A
O1162     Zn1332   2.009       .  S
O1162      C1170   1.271       .  A
O1163      C1172   1.261       .  A
O1164      C1173   1.275       .  A
O1165      C1172   1.275       .  A
O1166      C1173   1.261       .  A
O1167      C1174   1.261       .  A
O1168      C1174   1.275       .  A
C1169      C1237   1.459       .  S
C1170      C1233   1.459       .  S
C1171      C1229   1.457       .  S
C1172      C1201   1.462       .  S
C1173      C1198   1.461       .  S
C1174      C1193   1.462       .  S
C1175      C1176   1.343       .  D
C1175      H1177   1.087       .  S
C1176      H1178   1.087       .  S
C1179      C1180   1.344       .  D
C1179      H1181   1.087       .  S
C1180      H1182   1.087       .  S
C1183      C1184   1.344       .  D
C1183      H1185   1.087       .  S
C1184      H1186   1.087       .  S
C1187      C1188   1.216       .  T
C1189      C1190   1.217       .  T
C1191      C1192   1.217       .  T
C1193      C1194   1.353       .  D
C1193      H1195   1.084       .  S
C1194      H1196   1.086       .  S
C1197      C1198   1.353       .  D
C1197      H1199   1.086       .  S
C1198      H1200   1.084       .  S
C1201      C1202   1.353       .  D
C1201      H1203   1.084       .  S
C1202      H1204   1.086       .  S
C1205      C1206   1.218       .  T
C1207      C1208   1.217       .  T
C1209      C1210   1.217       .  T
C1211      C1212   1.353       .  D
C1211      H1213   1.086       .  S
C1212      H1214   1.084       .  S
C1215      C1216   1.353       .  D
C1215      H1217   1.086       .  S
C1216      H1218   1.084       .  S
C1219      C1220   1.354       .  D
C1219      H1221   1.086       .  S
C1220      H1222   1.084       .  S
C1223      C1224   1.218       .  T
C1225      C1226   1.218       .  T
C1227      C1228   1.217       .  T
C1229      C1230   1.343       .  D
C1229      H1231   1.087       .  S
C1230      H1232   1.087       .  S
C1233      C1234   1.344       .  D
C1233      H1235   1.087       .  S
C1234      H1236   1.087       .  S
C1237      C1238   1.344       .  D
C1237      H1239   1.087       .  S
C1238      H1240   1.087       .  S
C1241      C1242   1.217       .  T
C1243      C1244   1.217       .  T
C1245      C1246   1.216       .  T
C1247      H1248   1.110       .  S
C1247      C1253   1.524       .  S
C1247      C1252   1.523       .  S
C1247      C1251   1.523       .  S
C1249      H1250   1.100       .  S
C1249      C1255   1.557       .  S
C1249      C1254   1.556       .  S
C1249      C1256   1.556       .  S
C1251      C1254   1.368       .  D
C1251      C1412   1.474       .  S
C1252      C1255   1.368       .  D
C1252      C1416   1.474       .  S
C1253      C1256   1.368       .  D
C1253      C1408   1.472       .  S
C1254      C1422   1.462       .  S
C1255      C1423   1.461       .  S
C1256      C1420   1.463       .  S
C1257      H1258   1.100       .  S
C1257      C1263   1.557       .  S
C1257      C1262   1.557       .  S
C1257      C1261   1.557       .  S
C1259      H1260   1.094       .  S
C1259      C1265   1.522       .  S
C1259      C1264   1.522       .  S
C1259      C1266   1.521       .  S
C1261      C1264   1.370       .  D
C1261      C1401   1.464       .  S
C1262      C1265   1.371       .  D
C1262      C1404   1.465       .  S
C1263      C1266   1.370       .  D
C1263      C1405   1.463       .  S
C1264      C1393   1.478       .  S
C1265      C1397   1.478       .  S
C1266      C1389   1.479       .  S
C1269      H1270   1.111       .  S
C1271      C1274   1.370       .  D
C1271      C1424   1.463       .  S
C1272      C1275   1.370       .  D
C1272      C1419   1.465       .  S
C1273      C1445   1.551   1_655  S
C1273      C1276   1.370       .  D
C1273      C1421   1.464       .  S
C1274      C1403   1.467       .  S
C1275      C1406   1.464       .  S
C1276      C1447   1.552       .  S
C1276      C1402   1.466       .  S
C1277      H1278   1.100       .  S
C1277      C1283   1.556       .  S
C1277      C1282   1.557       .  S
C1277      C1281   1.557       .  S
C1279      H1280   1.094       .  S
C1279      C1285   1.522       .  S
C1279      C1284   1.522       .  S
C1279      C1286   1.522       .  S
C1281      C1284   1.370       .  D
C1281      C1387   1.463       .  S
C1282      C1285   1.370       .  D
C1282      C1385   1.463       .  S
C1283      C1286   1.370       .  D
C1283      C1383   1.465       .  S
C1284      C1372   1.479       .  S
C1285      C1380   1.479       .  S
C1286      C1375   1.477       .  S
C1287      H1288   1.110       .  S
C1287      C1293   1.523       .  S
C1287      C1292   1.523       .  S
C1287      C1291   1.523       .  S
C1289      H1290   1.100       .  S
C1289      C1295   1.556       .  S
C1289      C1294   1.556       .  S
C1289      C1296   1.556       .  S
C1291      C1294   1.368       .  D
C1291      C1354   1.473       .  S
C1292      C1295   1.368       .  D
C1292      C1361   1.473       .  S
C1293      C1296   1.368       .  D
C1293      C1357   1.474       .  S
C1294      C1369   1.462       .  S
C1295      C1368   1.462       .  S
C1296      C1366   1.461       .  S
C1297      C1303   1.550       .  S
C1299      H1300   1.111       .  S
C1299      C1306   1.552       .  S
C1301      C1304   1.370       .  D
C1301      C1367   1.464       .  S
C1302      C1305   1.370       .  D
C1302      C1365   1.463       .  S
C1303      C1306   1.370       .  D
C1303      C1370   1.464       .  S
C1304      C1386   1.465       .  S
C1305      C1384   1.466       .  S
C1306      C1388   1.465       .  S
Zn1307     O1311   1.908       .  S
Zn1308     O1491   2.003   1_556  S
Zn1308     O1315   2.042       .  S
Zn1309     O1314   2.042       .  S
Zn1309     O1317   1.995   1_556  S
Zn1310     O1489   1.947   1_655  S
Zn1310     O1496   1.993   1_556  S
Zn1310     O1321   2.007   1_556  S
Zn1310     O1322   2.040       .  S
O1312      C1324   1.261       .  A
O1313      C1325   1.271       .  A
O1314      C1326   1.276       .  A
O1315      C1324   1.275       .  A
O1316      C1326   1.261       .  A
O1317      C1325   1.272       .  A
O1318      C1327   1.271       .  A
O1319      C1328   1.271       .  A
O1320      C1327   1.271   1_455  A
O1321      C1328   1.271       .  A
O1322      C1329   1.275       .  A
O1323     Zn1485   1.924   1_655  S
O1323      C1329   1.261       .  A
C1324      C1398   1.462       .  S
C1325      C1353   1.458       .  S
C1326      C1390   1.462       .  S
C1327      C1362   1.458       .  S
C1328      C1358   1.459       .  S
C1329      C1394   1.461       .  S
Zn1330     O1334   1.947       .  S
Zn1330     O1339   2.003       .  S
Zn1330     O1346   2.043       .  S
Zn1331     O1336   1.993       .  S
Zn1331     O1342   2.040       .  S
Zn1332     O1343   2.041       .  S
Zn1333     O1334   1.909       .  S
Zn1333     O1345   1.925       .  S
O1335     Zn1508   1.996       .  S
O1335      C1347   1.271       .  A
O1336      C1348   1.271       .  A
O1337      C1349   1.271       .  A
O1338      C1347   1.271       .  A
O1339      C1349   1.271       .  A
O1340     Zn1510   2.008       .  S
O1340      C1348   1.271       .  A
O1341      C1350   1.261       .  A
O1342      C1351   1.275       .  A
O1343      C1350   1.275       .  A
O1344      C1351   1.261       .  A
O1345      C1352   1.261       .  A
O1346      C1352   1.276       .  A
C1347      C1415   1.460       .  S
C1348      C1411   1.459       .  S
C1349      C1407   1.457       .  S
C1350      C1379   1.462       .  S
C1351      C1376   1.461       .  S
C1352      C1371   1.463       .  S
C1353      C1354   1.343       .  D
C1353      H1355   1.087       .  S
C1354      H1356   1.087       .  S
C1357      C1358   1.343       .  D
C1357      H1359   1.087       .  S
C1358      H1360   1.087       .  S
C1361      C1362   1.343       .  D
C1361      H1363   1.087       .  S
C1362      H1364   1.087       .  S
C1365      C1366   1.216       .  T
C1367      C1368   1.217       .  T
C1369      C1370   1.217       .  T
C1371      C1372   1.353       .  D
C1371      H1373   1.084       .  S
C1372      H1374   1.086       .  S
C1375      C1376   1.353       .  D
C1375      H1377   1.086       .  S
C1376      H1378   1.084       .  S
C1379      C1380   1.353       .  D
C1379      H1381   1.084       .  S
C1380      H1382   1.086       .  S
C1383      C1384   1.218       .  T
C1385      C1386   1.217       .  T
C1387      C1388   1.217       .  T
C1389      C1390   1.353       .  D
C1389      H1391   1.086       .  S
C1390      H1392   1.084       .  S
C1393      C1394   1.353       .  D
C1393      H1395   1.086       .  S
C1394      H1396   1.084       .  S
C1397      C1398   1.354       .  D
C1397      H1399   1.086       .  S
C1398      H1400   1.084       .  S
C1401      C1402   1.218       .  T
C1403      C1404   1.218       .  T
C1405      C1406   1.217       .  T
C1407      C1408   1.343       .  D
C1407      H1409   1.087       .  S
C1408      H1410   1.087       .  S
C1411      C1412   1.344       .  D
C1411      H1413   1.087       .  S
C1412      H1414   1.087       .  S
C1415      C1416   1.344       .  D
C1415      H1417   1.087       .  S
C1416      H1418   1.087       .  S
C1419      C1420   1.217       .  T
C1421      C1422   1.217       .  T
C1423      C1424   1.216       .  T
C1425      H1426   1.110       .  S
C1425      C1431   1.524       .  S
C1425      C1430   1.523       .  S
C1425      C1429   1.523       .  S
C1427      H1428   1.100       .  S
C1427      C1433   1.557       .  S
C1427      C1432   1.557       .  S
C1427      C1434   1.556       .  S
C1429      C1432   1.368       .  D
C1429      C1590   1.474       .  S
C1430      C1433   1.368       .  D
C1430      C1594   1.474       .  S
C1431      C1434   1.368       .  D
C1431      C1586   1.473       .  S
C1432      C1600   1.462       .  S
C1433      C1601   1.461       .  S
C1434      C1598   1.463       .  S
C1435      H1436   1.100       .  S
C1435      C1441   1.557       .  S
C1435      C1440   1.557       .  S
C1435      C1439   1.557       .  S
C1437      H1438   1.094       .  S
C1437      C1443   1.521       .  S
C1437      C1442   1.522       .  S
C1437      C1444   1.521       .  S
C1439      C1442   1.370       .  D
C1439      C1579   1.464       .  S
C1440      C1443   1.371       .  D
C1440      C1582   1.464       .  S
C1441      C1444   1.370       .  D
C1441      C1583   1.463       .  S
C1442      C1571   1.478       .  S
C1443      C1575   1.478       .  S
C1444      C1567   1.479       .  S
C1447      H1448   1.111       .  S
C1449      C1452   1.370       .  D
C1449      C1602   1.463       .  S
C1450      C1453   1.370       .  D
C1450      C1597   1.465       .  S
C1451      C1454   1.370       .  D
C1451      C1599   1.464       .  S
C1452      C1581   1.466       .  S
C1453      C1584   1.465       .  S
C1454      C1580   1.466       .  S
C1455      H1456   1.100       .  S
C1455      C1461   1.557       .  S
C1455      C1460   1.557       .  S
C1455      C1459   1.557       .  S
C1457      H1458   1.094       .  S
C1457      C1463   1.522       .  S
C1457      C1462   1.522       .  S
C1457      C1464   1.522       .  S
C1459      C1462   1.370       .  D
C1459      C1565   1.463       .  S
C1460      C1463   1.370       .  D
C1460      C1563   1.463       .  S
C1461      C1464   1.370       .  D
C1461      C1561   1.465       .  S
C1462      C1550   1.479       .  S
C1463      C1558   1.479       .  S
C1464      C1553   1.477       .  S
C1465      H1466   1.110       .  S
C1465      C1471   1.522       .  S
C1465      C1470   1.523       .  S
C1465      C1469   1.523       .  S
C1467      H1468   1.100       .  S
C1467      C1473   1.556       .  S
C1467      C1472   1.556       .  S
C1467      C1474   1.556       .  S
C1469      C1472   1.368       .  D
C1469      C1532   1.473       .  S
C1470      C1473   1.368       .  D
C1470      C1539   1.473       .  S
C1471      C1474   1.368       .  D
C1471      C1535   1.474       .  S
C1472      C1547   1.462       .  S
C1473      C1546   1.462       .  S
C1474      C1544   1.460       .  S
C1475      C1481   1.550       .  S
C1477      H1478   1.111       .  S
C1477      C1484   1.552       .  S
C1479      C1482   1.370       .  D
C1479      C1545   1.464       .  S
C1480      C1483   1.370       .  D
C1480      C1543   1.462       .  S
C1481      C1484   1.370       .  D
C1481      C1548   1.464       .  S
C1482      C1564   1.465       .  S
C1483      C1562   1.467       .  S
C1484      C1566   1.465       .  S
Zn1485     O1489   1.909       .  S
Zn1486     O1493   2.043       .  S
Zn1487     O1492   2.043       .  S
Zn1487     O1495   1.995   1_556  S
Zn1488     O1499   2.008   1_556  S
Zn1488     O1500   2.040       .  S
O1490      C1502   1.261       .  A
O1491      C1503   1.270       .  A
O1492      C1504   1.276       .  A
O1493      C1502   1.276       .  A
O1494      C1504   1.261       .  A
O1495      C1503   1.272       .  A
O1496      C1505   1.271       .  A
O1497      C1506   1.271       .  A
O1498      C1505   1.271   1_455  A
O1499      C1506   1.271       .  A
O1500      C1507   1.275       .  A
O1501      C1507   1.261       .  A
C1502      C1576   1.462       .  S
C1503      C1531   1.458       .  S
C1504      C1568   1.462       .  S
C1505      C1540   1.458       .  S
C1506      C1536   1.459       .  S
C1507      C1572   1.461       .  S
Zn1508     O1512   1.948       .  S
Zn1508     O1517   2.004       .  S
Zn1508     O1524   2.043       .  S
Zn1509     O1514   1.993       .  S
Zn1509     O1520   2.040       .  S
Zn1510     O1521   2.041       .  S
Zn1511     O1512   1.909       .  S
Zn1511     O1523   1.925       .  S
O1513      C1525   1.271       .  A
O1514      C1526   1.271       .  A
O1515      C1527   1.271       .  A
O1516      C1525   1.271       .  A
O1517      C1527   1.271       .  A
O1518      C1526   1.271   1_545  A
O1519      C1528   1.261       .  A
O1520      C1529   1.275       .  A
O1521      C1528   1.275       .  A
O1522      C1529   1.261       .  A
O1523      C1530   1.261       .  A
O1524      C1530   1.276       .  A
C1525      C1593   1.459       .  S
C1526      C1589   1.459       .  S
C1527      C1585   1.458       .  S
C1528      C1557   1.462       .  S
C1529      C1554   1.461       .  S
C1530      C1549   1.463       .  S
C1531      C1532   1.343       .  D
C1531      H1533   1.087       .  S
C1532      H1534   1.087       .  S
C1535      C1536   1.344       .  D
C1535      H1537   1.087       .  S
C1536      H1538   1.087       .  S
C1539      C1540   1.343       .  D
C1539      H1541   1.087       .  S
C1540      H1542   1.087       .  S
C1543      C1544   1.216       .  T
C1545      C1546   1.217       .  T
C1547      C1548   1.217       .  T
C1549      C1550   1.353       .  D
C1549      H1551   1.084       .  S
C1550      H1552   1.086       .  S
C1553      C1554   1.353       .  D
C1553      H1555   1.086       .  S
C1554      H1556   1.084       .  S
C1557      C1558   1.353       .  D
C1557      H1559   1.084       .  S
C1558      H1560   1.086       .  S
C1561      C1562   1.218       .  T
C1563      C1564   1.217       .  T
C1565      C1566   1.218       .  T
C1567      C1568   1.353       .  D
C1567      H1569   1.086       .  S
C1568      H1570   1.084       .  S
C1571      C1572   1.353       .  D
C1571      H1573   1.086       .  S
C1572      H1574   1.084       .  S
C1575      C1576   1.354       .  D
C1575      H1577   1.086       .  S
C1576      H1578   1.084       .  S
C1579      C1580   1.218       .  T
C1581      C1582   1.218       .  T
C1583      C1584   1.217       .  T
C1585      C1586   1.343       .  D
C1585      H1587   1.087       .  S
C1586      H1588   1.087       .  S
C1589      C1590   1.344       .  D
C1589      H1591   1.087       .  S
C1590      H1592   1.087       .  S
C1593      C1594   1.343       .  D
C1593      H1595   1.087       .  S
C1594      H1596   1.087       .  S
C1597      C1598   1.218       .  T
C1599      C1600   1.217       .  T
C1601      C1602   1.216       .  T
