geometry optimzed in LAMMPS
_audit_creation_date              2020-12-01 
_audit_creation_method            'lammps2cif' 
_symmetry_space_group_name_H-M    'P1' 
_symmetry_Int_Tables_number       1 
_symmetry_cell_setting            triclinic 
loop_ 
_symmetry_equiv_pos_as_xyz 
  x,y,z 
_cell_length_a                    49.11752884 
_cell_length_b                    49.08144903996155 
_cell_length_c                    49.20310454295817 
_cell_angle_alpha                 90.04076490343049 
_cell_angle_beta                  89.96940733357391 
_cell_angle_gamma                 89.9212754936084 
loop_ 
_atom_site_label 
_atom_site_type_symbol 
_atom_site_fract_x 
_atom_site_fract_y 
_atom_site_fract_z 
_atom_site_charge 
N1          N  0.23280923  0.77267233  0.27946137    -0.36600
N2          N  0.22621684  0.72081025  0.25127383    -0.57200
N3          N  0.27900847  0.72844763  0.22566739    -0.36600
N4          N  0.28422319  0.78161750  0.25190976    -0.57200
C5          C  0.20598509  0.76798981  0.28355498     0.27000
C6          C  0.23735469  0.79926505  0.28513732     0.27000
C7          C  0.27070872  0.70570602  0.21243378     0.27000
C8          C  0.30069920  0.73857106  0.21197430     0.27000
C9          C  0.20405037  0.71981779  0.26757966     0.35600
C10         C  0.22872251  0.69591324  0.23968557     0.35600
C11         C  0.28556194  0.80202518  0.27029601     0.35600
C12         C  0.30915231  0.77981742  0.24044976     0.35600
C13         C  0.19338182  0.79189640  0.29190965    -0.21900
C14         C  0.21321093  0.81161156  0.29299470    -0.21900
C15         C  0.28805410  0.70090054  0.19062308    -0.21900
C16         C  0.30663778  0.72174860  0.19013788    -0.21900
C17         C  0.19238198  0.69415561  0.26633030    -0.23000
C18         C  0.20773382  0.67917680  0.24841504    -0.23000
C19         C  0.31148819  0.81318332  0.27053039    -0.23000
C20         C  0.32634136  0.79930570  0.25137135    -0.23000
C21         C  0.19294756  0.74233609  0.28185463    -0.18300
C22         C  0.26306107  0.81218839  0.28509144    -0.18300
C23         C  0.31630615  0.76170992  0.21933322    -0.18300
C24         C  0.24853585  0.68864418  0.21994068    -0.18300
H25         H  0.17214998  0.79475383  0.29708983     0.14600
H26         H  0.21024955  0.83259236  0.29911902     0.14600
H27         H  0.28770835  0.68407604  0.17644195     0.14600
H28         H  0.32298195  0.72395777  0.17554617     0.14600
H29         H  0.17431345  0.68707513  0.27673140     0.12900
H30         H  0.20358828  0.65841740  0.24232579     0.12900
H31         H  0.31884807  0.82989438  0.28284525     0.12900
H32         H  0.34740411  0.80307405  0.24611985     0.12900
H33         H  0.24769914  0.75792606  0.27639173     0.26100
H34         H  0.27187915  0.73523604  0.24429004     0.26100
N35         N  0.45926044  0.78471906  0.14725774    -0.27300
N36         N  0.44466744  0.78505110  0.12468350    -0.35200
C37         C  0.41816125  0.78252004  0.13112304     0.01000
C38         C  0.41597508  0.78007270  0.15905799     0.07100
C39         C  0.44242684  0.78184635  0.16864288    -0.06000
H40         H  0.40176558  0.78154778  0.11648018     0.07700
H41         H  0.44902626  0.78063593  0.18957882     0.08900
Cu42       Cu  0.46157895  0.78727217  0.08606934     0.44200
Cu43       Cu  0.50152003  0.78653390  0.14788410     0.42000
Cu44       Cu  0.53521641  0.79273421  0.08296072     0.43900
N45         N  0.48353830  0.79018709  0.05013096    -0.34700
N46         N  0.51033341  0.79256855  0.04918910    -0.29000
C47         C  0.51831873  0.79426649  0.02314035    -0.05100
C48         C  0.49546837  0.79287277  0.00688000     0.07200
C49         C  0.47375007  0.79022751  0.02459918     0.01000
H50         H  0.53926318  0.79609921  0.01658763     0.08600
H51         H  0.45243501  0.78843829  0.01937700     0.07700
N52         N  0.55583703  0.78935950  0.11932884    -0.36100
N53         N  0.54353735  0.78669659  0.14307751    -0.28300
C54         C  0.56248704  0.78301387  0.16243126    -0.03600
C55         C  0.58787788  0.78318109  0.15020236     0.05000
C56         C  0.58291738  0.78759545  0.12291804     0.03100
H57         H  0.55806989  0.78005108  0.18376432     0.08200
H58         H  0.59781278  0.78847105  0.10673314     0.07100
N59         N  0.45298666  0.76530033  0.84103964    -0.27300
N60         N  0.43994045  0.76938288  0.86418921    -0.35200
C61         C  0.41309852  0.76665017  0.86002743     0.01000
C62         C  0.40892534  0.76036167  0.83298755     0.07100
C63         C  0.43466633  0.75988095  0.82144199    -0.06000
H64         H  0.39771153  0.76922883  0.87556498     0.07700
H65         H  0.43970296  0.75640207  0.80031797     0.08900
Cu66       Cu  0.45848776  0.77921751  0.90046865     0.44200
Cu67       Cu  0.49498687  0.76769287  0.83747190     0.42000
Cu68       Cu  0.53025185  0.79065960  0.89865227     0.43900
N69         N  0.48095908  0.78836218  0.93464107    -0.34700
N70         N  0.50748080  0.79271707  0.93399632    -0.29000
C71         C  0.51660249  0.79578886  0.95955788    -0.05100
C72         C  0.49470249  0.79323002  0.97705571     0.07200
C73         C  0.47239565  0.78867109  0.96058604     0.01000
H74         H  0.53775408  0.79855811  0.96500262     0.08600
H75         H  0.45170530  0.78468263  0.96697995     0.07700
N76         N  0.54956285  0.78026187  0.86270776    -0.36100
N77         N  0.53693300  0.77099722  0.84087077    -0.28300
C78         C  0.55563068  0.76357162  0.82232772    -0.03600
C79         C  0.58131639  0.76816439  0.83304249     0.05000
C80         C  0.57657003  0.77927141  0.85850714     0.03100
H81         H  0.55083788  0.75483156  0.80271770     0.08200
H82         H  0.59153529  0.78598360  0.87313964     0.07100
N83         N  0.95791579  0.74125691  0.34058388    -0.27300
N84         N  0.94405757  0.73927159  0.36349907    -0.35200
C85         C  0.91735982  0.74155414  0.35806194     0.01000
C86         C  0.91415398  0.74522580  0.33032589     0.07100
C87         C  0.94037325  0.74449465  0.31988031    -0.06000
H88         H  0.90145470  0.74063364  0.37325274     0.07700
H89         H  0.94638137  0.74570242  0.29877967     0.08900
Cu90       Cu  0.96199322  0.73268464  0.40090160     0.44200
Cu91       Cu  0.00000779  0.73955597  0.33859467     0.42000
Cu92       Cu  0.03490859  0.72106012  0.40074642     0.43900
N93         N  0.98467064  0.72599794  0.43562372    -0.34700
N94         N  0.01128938  0.72193258  0.43574587    -0.29000
C95         C  0.01975623  0.71949482  0.46164062    -0.05100
C96         C  0.99731223  0.72193201  0.47847754     0.07200
C97         C  0.97544103  0.72598156  0.46132521     0.01000
H98         H  0.04069119  0.71635526  0.46771800     0.08600
H99         H  0.95441626  0.72919960  0.46706664     0.07700
N100        N  0.05437469  0.72662759  0.36370579    -0.36100
N101        N  0.04184524  0.73488153  0.34144408    -0.28300
C102        C  0.06042463  0.73900240  0.32179446    -0.03600
C103        C  0.08599085  0.73227167  0.33183581     0.05000
C104        C  0.08119006  0.72472559  0.35862267     0.03100
H105        H  0.05551430  0.74701904  0.30195497     0.08200
H106        H  0.09613841  0.71861021  0.37356010     0.07100
N107        N  0.03571133  0.72284758  0.64807489    -0.27300
N108        N  0.04927654  0.72505116  0.62500573    -0.35200
C109        C  0.07599544  0.72691239  0.63043743     0.01000
C110        C  0.07961423  0.72512232  0.65831071     0.07100
C111        C  0.05350761  0.72293390  0.66883106    -0.06000
H112        H  0.09151396  0.72968133  0.61510866     0.07700
H113        H  0.04783419  0.72135645  0.69001986     0.08900
Cu114      Cu  0.03115469  0.72438616  0.58709411     0.44200
Cu115      Cu  0.99366498  0.72064569  0.64999583     0.42000
Cu116      Cu  0.95790231  0.71901240  0.58526681     0.43900
N117        N  0.00897283  0.72191937  0.55147484    -0.34700
N118        N  0.98213114  0.72012640  0.55079920    -0.29000
C119        C  0.97390576  0.71971749  0.52475498    -0.05100
C120        C  0.99669494  0.72114384  0.50830927     0.07200
C121        C  0.01859002  0.72245032  0.52588480     0.01000
H122        H  0.95288041  0.71859921  0.51831767     0.08600
H123        H  0.03988816  0.72412876  0.52053224     0.07700
N124        N  0.93862994  0.72053611  0.62271456    -0.36100
N125        N  0.95170501  0.72125978  0.64618515    -0.28300
C126        C  0.93349882  0.72370367  0.66642110    -0.03600
C127        C  0.90769196  0.72426877  0.65522501     0.05000
C128        C  0.91172056  0.72241880  0.62743301     0.03100
H129        H  0.93870231  0.72535139  0.68772304     0.08200
H130        H  0.89635792  0.72339281  0.61171722     0.07100
N131        N  0.26446608  0.71949961  0.77634032    -0.36600
N132        N  0.27200686  0.77230201  0.75028008    -0.57200
N133        N  0.22036923  0.76550146  0.72270250    -0.36600
N134        N  0.21170667  0.71404100  0.75057169    -0.57200
C135        C  0.28613606  0.72912747  0.79027574     0.27000
C136        C  0.25400365  0.69856240  0.79085194     0.27000
C137        C  0.22561017  0.79200169  0.71723828     0.27000
C138        C  0.19377863  0.76110889  0.71706973     0.27000
C139        C  0.29718136  0.76877193  0.76070419     0.35600
C140        C  0.27382959  0.79315144  0.73246166     0.35600
C141        C  0.21349065  0.68908726  0.76200821     0.35600
C142        C  0.19051686  0.71310094  0.73310692     0.35600
C143        C  0.28966812  0.71397837  0.81380237    -0.21900
C144        C  0.26935143  0.69470439  0.81418434    -0.21900
C145        C  0.20207644  0.80456519  0.70797695    -0.21900
C146        C  0.18206105  0.78502545  0.70764077    -0.21900
C147        C  0.31503800  0.78761975  0.74968475    -0.23000
C148        C  0.30024807  0.80300801  0.73166998    -0.23000
C149        C  0.19318258  0.67228979  0.75194605    -0.23000
C150        C  0.17855783  0.68753756  0.73371231    -0.23000
C151        C  0.30377102  0.75011563  0.78149894    -0.18300
C152        C  0.23200850  0.68182349  0.78275843    -0.18300
C153        C  0.18035529  0.73567196  0.71846618    -0.18300
C154        C  0.25149271  0.80461279  0.71845096    -0.18300
H155        H  0.30539277  0.71641674  0.82901270     0.14600
H156        H  0.26640178  0.67939191  0.82972447     0.14600
H157        H  0.19966929  0.82553926  0.70163000     0.14600
H158        H  0.16131493  0.78810247  0.70092939     0.14600
H159        H  0.33641352  0.79019265  0.75435059     0.12900
H160        H  0.30796745  0.81979030  0.71968750     0.12900
H161        H  0.18907420  0.65134281  0.75742780     0.12900
H162        H  0.16084778  0.68069256  0.72257169     0.12900
H163        H  0.25918289  0.72481663  0.75661344     0.26100
H164        H  0.23478112  0.75054345  0.72671647     0.26100
N165        N  0.45843374  0.23195306  0.15765683    -0.27300
N166        N  0.44424610  0.23063390  0.13491874    -0.35200
C167        C  0.41775505  0.23409016  0.14074971     0.01000
C168        C  0.41503081  0.23776721  0.16857604     0.07100
C169        C  0.44133476  0.23586916  0.17863049    -0.06000
H170        H  0.40164517  0.23377923  0.12577077     0.07700
H171        H  0.44769936  0.23664348  0.19963851     0.08900
Cu172      Cu  0.46146848  0.22297702  0.09726051     0.44200
Cu173      Cu  0.50036982  0.22918183  0.15884729     0.42000
Cu174      Cu  0.53431623  0.21091701  0.09611838     0.43900
N175        N  0.48349549  0.21495307  0.06226419    -0.34700
N176        N  0.51005227  0.21053777  0.06195352    -0.29000
C177        C  0.51846376  0.20808809  0.03609827    -0.05100
C178        C  0.49609194  0.21093824  0.01937123     0.07200
C179        C  0.47422777  0.21514519  0.03656585     0.01000
H180        H  0.53943355  0.20523785  0.02997367     0.08600
H181        H  0.45333271  0.21910853  0.03084062     0.07700
N182        N  0.55454815  0.22041582  0.13155501    -0.36100
N183        N  0.54213260  0.22808915  0.15410834    -0.28300
C184        C  0.56090728  0.23552118  0.17245718    -0.03600
C185        C  0.58645275  0.23249167  0.16090367     0.05000
C186        C  0.58158514  0.22240223  0.13505556     0.03100
H187        H  0.55620921  0.24304045  0.19259427     0.08200
H188        H  0.59644600  0.21693074  0.11978200     0.07100
N189        N  0.45372741  0.23174917  0.85355318    -0.27300
N190        N  0.44110474  0.22099762  0.87461150    -0.35200
C191        C  0.41517141  0.21587079  0.86778416     0.01000
C192        C  0.41098497  0.22396338  0.84101172     0.07100
C193        C  0.43599169  0.23452258  0.83302333    -0.06000
H194        H  0.40055034  0.20698233  0.88157948     0.07700
H195        H  0.44125500  0.24408771  0.81402814     0.08900
Cu196      Cu  0.45926063  0.21539003  0.91201583     0.44200
Cu197      Cu  0.49507971  0.23903562  0.85234654     0.42000
Cu198      Cu  0.53264338  0.21989803  0.91229468     0.43900
N199        N  0.48252955  0.21358104  0.94688845    -0.34700
N200        N  0.50941864  0.21458005  0.94690613    -0.29000
C201        C  0.51837554  0.21323233  0.97265514    -0.05100
C202        C  0.49600580  0.21153462  0.98959674     0.07200
C203        C  0.47360238  0.21186795  0.97264895     0.01000
H204        H  0.53955892  0.21420814  0.97858331     0.08600
H205        H  0.45239372  0.21115649  0.97854669     0.07700
N206        N  0.55074956  0.22877875  0.87544733    -0.36100
N207        N  0.53700927  0.23626145  0.85361373    -0.28300
C208        C  0.55451234  0.24017649  0.83300099    -0.03600
C209        C  0.58059515  0.23528402  0.84244812     0.05000
C210        C  0.57739713  0.22786113  0.86937799     0.03100
H211        H  0.54856956  0.24557064  0.81253430     0.08200
H212        H  0.59327254  0.22226132  0.88355731     0.07100
N213        N  0.23277096  0.54238053  0.15076241    -0.27300
N214        N  0.22130787  0.55509248  0.13009886    -0.35200
C215        C  0.22151654  0.58205105  0.13489474     0.01000
C216        C  0.23467776  0.58703233  0.15947449     0.07100
C217        C  0.24130022  0.56104642  0.16887219    -0.06000
H218        H  0.21180767  0.59651973  0.12158196     0.07700
H219        H  0.25114079  0.55580555  0.18779904     0.08900
Cu220      Cu  0.20722470  0.53547306  0.09545448     0.44200
Cu221      Cu  0.23311273  0.50012313  0.15483807     0.42000
Cu222      Cu  0.20668689  0.46228871  0.09707216     0.43900
N223        N  0.20084160  0.51155081  0.06122770    -0.34700
N224        N  0.20099459  0.48462724  0.06176867    -0.29000
C225        C  0.19880238  0.47513297  0.03620316    -0.05100
C226        C  0.19723007  0.49716123  0.01872847     0.07200
C227        C  0.19851630  0.51992553  0.03529536     0.01000
H228        H  0.19927325  0.45379053  0.03071161     0.08600
H229        H  0.19888527  0.54101168  0.02892278     0.07700
N230        N  0.21555426  0.44481153  0.13439571    -0.36100
N231        N  0.22572872  0.45831125  0.15530294    -0.28300
C232        C  0.23009998  0.44070880  0.17583540    -0.03600
C233        C  0.22201537  0.41489279  0.16757254     0.05000
C234        C  0.21309935  0.41838879  0.14108613     0.03100
H235        H  0.23928315  0.44623578  0.19502520     0.08200
H236        H  0.20567063  0.40277148  0.12746215     0.07100
N237        N  0.21843259  0.45219028  0.85209836    -0.27300
N238        N  0.21485926  0.43897099  0.87522032    -0.35200
C239        C  0.21824481  0.41212005  0.87074788     0.01000
C240        C  0.22455840  0.40822612  0.84355244     0.07100
C241        C  0.22416384  0.43411682  0.83232467    -0.06000
H242        H  0.21651275  0.39657276  0.88622794     0.07700
H243        H  0.22748526  0.43946592  0.81126496     0.08900
Cu244      Cu  0.20616311  0.45826434  0.91186815     0.44200
Cu245      Cu  0.21568409  0.49426903  0.84856003     0.42000
Cu246      Cu  0.20141162  0.53212046  0.91031520     0.43900
N247        N  0.20022241  0.48229170  0.94619503    -0.34700
N248        N  0.19865639  0.50919256  0.94564724    -0.29000
C249        C  0.19661272  0.51857132  0.97127602    -0.05100
C250        C  0.19691553  0.49652586  0.98878682     0.07200
C251        C  0.19914260  0.47385794  0.97218975     0.01000
H252        H  0.19578699  0.53990745  0.97675309     0.08600
H253        H  0.20081292  0.45282815  0.97854517     0.07700
N254        N  0.20709597  0.55021907  0.87262842    -0.36100
N255        N  0.21263121  0.53645164  0.85018054    -0.28300
C256        C  0.21644614  0.55415968  0.82967385    -0.03600
C257        C  0.21282486  0.58031621  0.83959967     0.05000
C258        C  0.20711230  0.57702628  0.86696019     0.03100
H259        H  0.22173656  0.54842875  0.80909899     0.08200
H260        H  0.20403811  0.59295879  0.88185573     0.07100
N261        N  0.04148608  0.26679685  0.35117333    -0.27300
N262        N  0.05390192  0.27043658  0.37469292    -0.35200
C263        C  0.08092630  0.27095750  0.37060514     0.01000
C264        C  0.08568382  0.26770543  0.34310328     0.07100
C265        C  0.06025882  0.26481440  0.33142479    -0.06000
H266        H  0.09594111  0.27311226  0.38653482     0.07700
H267        H  0.05572128  0.26177321  0.31012193     0.08900
Cu268      Cu  0.03351381  0.27394850  0.41111756     0.44200
Cu269      Cu  0.99971317  0.26561980  0.34711561     0.42000
Cu270      Cu  0.95980406  0.27373676  0.40896616     0.43900
N271        N  0.00920495  0.27484915  0.44524202    -0.34700
N272        N  0.98229466  0.27458553  0.44475062    -0.29000
C273        C  0.97299419  0.27444171  0.47049386    -0.05100
C274        C  0.99519023  0.27464267  0.48783997     0.07200
C275        C  0.01776519  0.27491661  0.47114386     0.01000
H276        H  0.95170400  0.27399155  0.47611545     0.08600
H277        H  0.03890834  0.27483226  0.47728933     0.07700
N278        N  0.94312371  0.27141310  0.37020525    -0.36100
N279        N  0.95778598  0.26807074  0.34789548    -0.28300
C280        C  0.94108373  0.26632290  0.32637629    -0.03600
C281        C  0.91458783  0.26842870  0.33555069     0.05000
C282        C  0.91659986  0.27196022  0.36338692     0.03100
H283        H  0.94777529  0.26348253  0.30561383     0.08200
H284        H  0.89999143  0.27396613  0.37770491     0.07100
N285        N  0.03680129  0.26223974  0.65581980    -0.27300
N286        N  0.05054207  0.26731237  0.63331755    -0.35200
C287        C  0.07725792  0.26818589  0.63924373     0.01000
C288        C  0.08061360  0.26342515  0.66689087     0.07100
C289        C  0.05438814  0.25907115  0.67646062    -0.06000
H290        H  0.09302940  0.27229883  0.62446319     0.07700
H291        H  0.04822147  0.25388670  0.69687091     0.08900
Cu292      Cu  0.03223324  0.27195869  0.59556126     0.44200
Cu293      Cu  0.99471396  0.26288889  0.65850276     0.42000
Cu294      Cu  0.95849688  0.26997549  0.59537232     0.43900
N295        N  0.00869771  0.27305799  0.56052563    -0.34700
N296        N  0.98179400  0.27218851  0.56050494    -0.29000
C297        C  0.97279082  0.27281109  0.53471026    -0.05100
C298        C  0.99512257  0.27405612  0.51768987     0.07200
C299        C  0.01754837  0.27417221  0.53469615     0.01000
H300        H  0.95157437  0.27221901  0.52884786     0.08600
H301        H  0.03875227  0.27483809  0.52878322     0.07700
N302        N  0.93966272  0.26975152  0.63288521    -0.36100
N303        N  0.95288742  0.26803813  0.65616267    -0.28300
C304        C  0.93481080  0.26920881  0.67666435    -0.03600
C305        C  0.90883945  0.27168964  0.66576563     0.05000
C306        C  0.91285277  0.27152456  0.63787171     0.03100
H307        H  0.94021043  0.26789343  0.69793345     0.08200
H308        H  0.89749975  0.27168486  0.62215877     0.07100
N309        N  0.27237963  0.95877783  0.35372035    -0.27300
N310        N  0.28227243  0.94539755  0.37481608    -0.35200
C311        C  0.28395799  0.91877615  0.36854098     0.01000
C312        C  0.27482712  0.91513815  0.34211832     0.07100
C313        C  0.26724139  0.94099185  0.33358567    -0.06000
H314        H  0.29139135  0.90322008  0.38223315     0.07700
H315        H  0.25835878  0.94658885  0.31428474     0.08900
Cu316      Cu  0.29196452  0.96379775  0.41151038     0.44200
Cu317      Cu  0.26764911  0.00077829  0.35262441     0.42000
Cu318      Cu  0.28540384  0.03715439  0.41412920     0.43900
N319        N  0.29638463  0.98649789  0.44679756    -0.34700
N320        N  0.29398065  0.01331366  0.44774496    -0.29000
C321        C  0.29612954  0.02159794  0.47371073    -0.05100
C322        C  0.29991548  0.99887333  0.48988079     0.07200
C323        C  0.30001718  0.97698329  0.47216176     0.01000
H324        H  0.29398511  0.04249974  0.48037993     0.08600
H325        H  0.30161118  0.95563248  0.47736991     0.07700
N326        N  0.27582686  0.05614039  0.37782431    -0.36100
N327        N  0.26911562  0.04293958  0.35538478    -0.28300
C328        C  0.26528912  0.06110103  0.33527799    -0.03600
C329        C  0.27017656  0.08692346  0.34548966     0.05000
C330        C  0.27642434  0.08300787  0.37262845     0.03100
H331        H  0.26018369  0.05583367  0.31454364     0.08200
H332        H  0.28135518  0.09848803  0.38748210     0.07100
N333        N  0.26638769  0.95071399  0.65110584    -0.27300
N334        N  0.27762731  0.93807897  0.63019587    -0.35200
C335        C  0.27787594  0.91111198  0.63508836     0.01000
C336        C  0.26576683  0.90644375  0.66014492     0.07100
C337        C  0.25904075  0.93213582  0.66976735    -0.06000
H338        H  0.28652209  0.89612988  0.62146113     0.07700
H339        H  0.24942067  0.93701064  0.68895129     0.08900
Cu340      Cu  0.29091087  0.95817217  0.59554179     0.44200
Cu341      Cu  0.26260350  0.99271405  0.65389392     0.42000
Cu342      Cu  0.29004456  0.03203500  0.59810475     0.43900
N343        N  0.29753065  0.98294502  0.56202636    -0.34700
N344        N  0.29707622  0.00987054  0.56294424    -0.29000
C345        C  0.29897743  0.01970295  0.53750902    -0.05100
C346        C  0.30066338  0.99791642  0.51974897     0.07200
C347        C  0.29980917  0.97493829  0.53597880     0.01000
H348        H  0.29784223  0.04108260  0.53228923     0.08600
H349        H  0.29936148  0.95394309  0.52929279     0.07700
N350        N  0.27687953  0.04909893  0.63433291    -0.36100
N351        N  0.26581609  0.03483968  0.65423285    -0.28300
C352        C  0.25845835  0.05188689  0.67434035    -0.03600
C353        C  0.26572302  0.07817719  0.66703728     0.05000
C354        C  0.27708232  0.07556965  0.64136132     0.03100
H355        H  0.24834323  0.04549787  0.69277614     0.08200
H356        H  0.28500031  0.09173235  0.62869121     0.07100
N357        N  0.22118198  0.22068954  0.72966895    -0.36600
N358        N  0.21529015  0.27292841  0.75715420    -0.57200
N359        N  0.26891426  0.26540646  0.78127575    -0.36600
N360        N  0.27314600  0.21172638  0.75590631    -0.57200
C361        C  0.19465033  0.22628401  0.72501790     0.27000
C362        C  0.22490854  0.19385424  0.72459538     0.27000
C363        C  0.26088262  0.28824972  0.79451642     0.27000
C364        C  0.29154359  0.25600089  0.79384593     0.27000
C365        C  0.19424785  0.27481419  0.73956441     0.35600
C366        C  0.21887306  0.29809679  0.76772333     0.35600
C367        C  0.27326906  0.19015028  0.73880621     0.35600
C368        C  0.29843617  0.21334896  0.76656789     0.35600
C369        C  0.18131656  0.20269972  0.71702634    -0.21900
C370        C  0.20045726  0.18221495  0.71672226    -0.21900
C371        C  0.27897471  0.29378606  0.81539246    -0.21900
C372        C  0.29843960  0.27370054  0.81478345    -0.21900
C373        C  0.18434111  0.30128221  0.73909317    -0.23000
C374        C  0.19976879  0.31595641  0.75715523    -0.23000
C375        C  0.29870050  0.17791601  0.73871061    -0.23000
C376        C  0.31446289  0.19225892  0.75662648    -0.23000
C377        C  0.18286434  0.25258647  0.72521514    -0.18300
C378        C  0.25023760  0.18018722  0.72475708    -0.18300
C379        C  0.30687956  0.23264096  0.78625348    -0.18300
C380        C  0.23843564  0.30502231  0.78759608    -0.18300
H381        H  0.16012760  0.20062073  0.71137149     0.14600
H382        H  0.19691624  0.16126283  0.71084341     0.14600
H383        H  0.27847343  0.31076254  0.82943436     0.14600
H384        H  0.31579941  0.27255534  0.82824226     0.14600
H385        H  0.16760567  0.30920584  0.72717862     0.12900
H386        H  0.19734179  0.33737589  0.76182725     0.12900
H387        H  0.30519137  0.16017677  0.72734769     0.12900
H388        H  0.33532447  0.18741967  0.76170826     0.12900
H389        H  0.23648137  0.23505492  0.73223509     0.26100
H390        H  0.26090008  0.25807092  0.76326000     0.26100
N391        N  0.27141725  0.27431139  0.22943742    -0.36600
N392        N  0.28196346  0.22355862  0.25882481    -0.57200
N393        N  0.22891506  0.22800162  0.28365702    -0.36600
N394        N  0.21966646  0.28002588  0.25645137    -0.57200
C395        C  0.29827558  0.27092053  0.22442843     0.27000
C396        C  0.26493770  0.30024315  0.22256973     0.27000
C397        C  0.23937447  0.20694347  0.29792702     0.27000
C398        C  0.20719693  0.23738658  0.29767611     0.27000
C399        C  0.30362595  0.22340967  0.24190142     0.35600
C400        C  0.28047274  0.19833726  0.26978255     0.35600
C401        C  0.21678853  0.29999519  0.23779308     0.35600
C402        C  0.19477570  0.27601496  0.26732449     0.35600
C403        C  0.30888538  0.29491967  0.21392049    -0.21900
C404        C  0.28791208  0.31345120  0.21296588    -0.21900
C405        C  0.22405656  0.20280146  0.32124445    -0.21900
C406        C  0.20373106  0.22206725  0.32110251    -0.21900
C407        C  0.31636959  0.19818557  0.24264970    -0.23000
C408        C  0.30155378  0.18222895  0.26012670    -0.23000
C409        C  0.18996719  0.30876708  0.23688872    -0.23000
C410        C  0.17602850  0.29364677  0.25573265    -0.23000
C411        C  0.31283148  0.24609697  0.22677108    -0.18300
C412        C  0.23846967  0.31168501  0.22302432    -0.18300
C413        C  0.18903758  0.25775751  0.28867035    -0.18300
C414        C  0.26114208  0.19015012  0.28944272    -0.18300
H415        H  0.32949215  0.29870830  0.20717308     0.14600
H416        H  0.28932731  0.33414491  0.20552192     0.14600
H417        H  0.22699165  0.18725839  0.33656614     0.14600
H418        H  0.18785924  0.22418364  0.33623106     0.14600
H419        H  0.33446041  0.19188650  0.23175667     0.12900
H420        H  0.30596774  0.16125241  0.26527866     0.12900
H421        H  0.18137792  0.32459127  0.22419871     0.12900
H422        H  0.15457250  0.29548331  0.26043074     0.12900
H423        H  0.25772715  0.25885246  0.23389692     0.26100
H424        H  0.23400999  0.23323860  0.26385583     0.26100
N425        N  0.72934367  0.27729862  0.21936898    -0.36600
N426        N  0.72277540  0.22454743  0.24433199    -0.57200
N427        N  0.77618016  0.22951044  0.26857421    -0.36600
N428        N  0.78189526  0.28327465  0.24495540    -0.57200
C429        C  0.70252270  0.27280621  0.21527837     0.27000
C430        C  0.73365106  0.30429540  0.21618998     0.27000
C431        C  0.76571566  0.20863213  0.28309635     0.27000
C432        C  0.79746379  0.23941653  0.28283698     0.27000
C433        C  0.70206822  0.22363094  0.22638613     0.35600
C434        C  0.72609239  0.19893425  0.25364199     0.35600
C435        C  0.78269150  0.30480008  0.22793156     0.35600
C436        C  0.80761472  0.27929314  0.25372355     0.35600
C437        C  0.68956581  0.29723419  0.20945629    -0.21900
C438        C  0.70925404  0.31715499  0.21004643    -0.21900
C439        C  0.78072815  0.20496058  0.30666131    -0.21900
C440        C  0.80079881  0.22444055  0.30651270    -0.21900
C441        C  0.69233654  0.19721233  0.22405357    -0.23000
C442        C  0.70743756  0.18156677  0.24162439    -0.23000
C443        C  0.80909566  0.31450209  0.22574815    -0.23000
C444        C  0.82492284  0.29833571  0.24223117    -0.23000
C445        C  0.69002963  0.24691361  0.21466275    -0.18300
C446        C  0.75941409  0.31708324  0.21640548    -0.18300
C447        C  0.81481308  0.26064265  0.27425698    -0.18300
C448        C  0.74407353  0.19179303  0.27470127    -0.18300
H449        H  0.66823423  0.30031701  0.20486146     0.14600
H450        H  0.70606804  0.33858663  0.20594547     0.14600
H451        H  0.77770740  0.18967911  0.32221861     0.14600
H452        H  0.81619272  0.22715428  0.32200804     0.14600
H453        H  0.67551110  0.19015673  0.21173433     0.12900
H454        H  0.70475041  0.16002514  0.24546018     0.12900
H455        H  0.81607651  0.33182816  0.21408813     0.12900
H456        H  0.84651004  0.30073410  0.24591115     0.12900
H457        H  0.74433642  0.26237235  0.22064475     0.26100
H458        H  0.77102443  0.23475672  0.24875518     0.26100
N459        N  0.77180435  0.54988109  0.15078609    -0.27300
N460        N  0.77788353  0.56234833  0.12774205    -0.35200
C461        C  0.77659279  0.58943265  0.13155723     0.01000
C462        C  0.76904522  0.59441608  0.15817139     0.07100
C463        C  0.76634442  0.56884667  0.16985976    -0.06000
H464        H  0.78072789  0.60444286  0.11600575     0.07700
H465        H  0.76128013  0.56435661  0.19078096     0.08900
Cu466      Cu  0.78740747  0.54258113  0.09168465     0.44200
Cu467      Cu  0.77205178  0.50761063  0.15518182     0.42000
Cu468      Cu  0.79375034  0.47025628  0.09449077     0.43900
N469        N  0.79422197  0.51885253  0.05743639    -0.34700
N470        N  0.79636461  0.49203793  0.05844289    -0.29000
C471        C  0.79874348  0.48228097  0.03297948    -0.05100
C472        C  0.79822510  0.50405567  0.01509957     0.07200
C473        C  0.79539765  0.52693751  0.03132576     0.01000
H474        H  0.80011412  0.46088397  0.02785709     0.08600
H475        H  0.79340858  0.54783420  0.02463023     0.07700
N476        N  0.78452621  0.45214501  0.13144054    -0.36100
N477        N  0.77548502  0.46530199  0.15310799    -0.28300
C478        C  0.76875655  0.44694316  0.17230893    -0.03600
C479        C  0.77356021  0.42097055  0.16215928     0.05000
C480        C  0.78415659  0.42525181  0.13641137     0.03100
H481        H  0.76029141  0.45211738  0.19195119     0.08200
H482        H  0.79083886  0.41000182  0.12201836     0.07100
N483        N  0.77089470  0.45690193  0.85072146    -0.27300
N484        N  0.77649149  0.44392643  0.87357152    -0.35200
C485        C  0.77347259  0.41700613  0.86950184     0.01000
C486        C  0.76539364  0.41282261  0.84284532     0.07100
C487        C  0.76434977  0.43861067  0.83147748    -0.06000
H488        H  0.77680943  0.40161174  0.88487430     0.07700
H489        H  0.75968545  0.44377305  0.81062998     0.08900
Cu490      Cu  0.78777069  0.46344974  0.90924133     0.44200
Cu491      Cu  0.77249675  0.49881317  0.84654055     0.42000
Cu492      Cu  0.79491614  0.53680467  0.90559693     0.43900
N493        N  0.79510987  0.48791709  0.94285240    -0.34700
N494        N  0.79728037  0.51474868  0.94168736    -0.29000
C495        C  0.79935058  0.52461180  0.96715598    -0.05100
C496        C  0.79856744  0.50292937  0.98514554     0.07200
C497        C  0.79598140  0.47999352  0.96900873     0.01000
H498        H  0.80056286  0.54603006  0.97221063     0.08600
H499        H  0.79371837  0.45915921  0.97579634     0.07700
N500        N  0.78675191  0.55443500  0.86798016    -0.36100
N501        N  0.77745601  0.54067003  0.84685828    -0.28300
C502        C  0.77191618  0.55813706  0.82655472    -0.03600
C503        C  0.77857025  0.58425985  0.83498533     0.05000
C504        C  0.78773536  0.58102391  0.86148603     0.03100
H505        H  0.76284576  0.55219357  0.80744292     0.08200
H506        H  0.79408812  0.59692760  0.87531865     0.07100
N507        N  0.72107045  0.96713567  0.34582619    -0.27300
N508        N  0.72136034  0.95299704  0.36862564    -0.35200
C509        C  0.72487603  0.92648280  0.36255684     0.01000
C510        C  0.72708958  0.92387320  0.33453220     0.07100
C511        C  0.72408544  0.95012501  0.32466016    -0.06000
H512        H  0.72613186  0.91034926  0.37747405     0.07700
H513        H  0.72398507  0.95655639  0.30365496     0.08900
Cu514      Cu  0.71744581  0.97123061  0.40655708     0.44200
Cu515      Cu  0.71881069  0.00901522  0.34469878     0.42000
Cu516      Cu  0.71875176  0.04571253  0.40891358     0.43900
N517        N  0.71524257  0.99396181  0.44213179    -0.34700
N518        N  0.71612204  0.02089290  0.44319998    -0.29000
C519        C  0.71573777  0.02873566  0.46944993    -0.05100
C520        C  0.71452169  0.00563895  0.48558505     0.07200
C521        C  0.71414523  0.98402324  0.46757179     0.01000
H522        H  0.71673743  0.04967384  0.47626060     0.08600
H523        H  0.71384512  0.96256488  0.47255769     0.07700
N524        N  0.72135288  0.06444505  0.37100528    -0.36100
N525        N  0.72117211  0.05078297  0.34783790    -0.28300
C526        C  0.72378192  0.06827505  0.32706822    -0.03600
C527        C  0.72541024  0.09433281  0.33749199     0.05000
C528        C  0.72402311  0.09117962  0.36547257     0.03100
H529        H  0.72458734  0.06239454  0.30588340     0.08200
H530        H  0.72543199  0.10702396  0.38069504     0.07100
N531        N  0.71928844  0.95593043  0.65292725    -0.27300
N532        N  0.71776334  0.94335236  0.62918735    -0.35200
C533        C  0.71841847  0.91627378  0.63342300     0.01000
C534        C  0.72034167  0.91167321  0.66112517     0.07100
C535        C  0.72109669  0.93726706  0.67279961    -0.06000
H536        H  0.71826394  0.90110417  0.61746580     0.07700
H537        H  0.72308032  0.94200687  0.69418757     0.08900
Cu538      Cu  0.71623093  0.96336294  0.59192173     0.44200
Cu539      Cu  0.72019671  0.99774304  0.65782761     0.42000
Cu540      Cu  0.72368576  0.03598931  0.59519913     0.43900
N541        N  0.71609858  0.98828073  0.55768632    -0.34700
N542        N  0.71882675  0.01503580  0.55898805    -0.29000
C543        C  0.71826099  0.02538952  0.53367334    -0.05100
C544        C  0.71512158  0.00410141  0.51551316     0.07200
C545        C  0.71381476  0.98086632  0.53144193     0.01000
H546        H  0.72037434  0.04678885  0.52887161     0.08600
H547        H  0.71165203  0.96006964  0.52448508     0.07700
N548        N  0.72651532  0.05333526  0.63345061    -0.36100
N549        N  0.72435551  0.03960849  0.65642236    -0.28300
C550        C  0.72589402  0.05711140  0.67741553    -0.03600
C551        C  0.72972568  0.08313679  0.66714104     0.05000
C552        C  0.72979262  0.07985408  0.63917506     0.03100
H553        H  0.72383704  0.05125175  0.69849138     0.08200
H554        H  0.73195402  0.09563275  0.62399081     0.07100
N555        N  0.72136910  0.27129983  0.78014824    -0.36600
N556        N  0.71536321  0.21882974  0.75345741    -0.57200
N557        N  0.76674316  0.22797928  0.72536151    -0.36600
N558        N  0.77363346  0.27932423  0.75397591    -0.57200
C559        C  0.70023670  0.26070840  0.79417023     0.27000
C560        C  0.73123982  0.29223747  0.79503585     0.27000
C561        C  0.76212186  0.20167923  0.71852876     0.27000
C562        C  0.79272067  0.23388180  0.71834177     0.27000
C563        C  0.69030035  0.22084394  0.76457407     0.35600
C564        C  0.71456408  0.19749089  0.73616130     0.35600
C565        C  0.77129933  0.30377284  0.76636140     0.35600
C566        C  0.79497283  0.28128576  0.73680148     0.35600
C567        C  0.69652851  0.27518246  0.81812215    -0.21900
C568        C  0.71610049  0.29509921  0.81865680    -0.21900
C569        C  0.78530016  0.19091973  0.70644312    -0.21900
C570        C  0.80454705  0.21121366  0.70628300    -0.21900
C571        C  0.67351830  0.20054365  0.75452033    -0.23000
C572        C  0.68896792  0.18559396  0.73663813    -0.23000
C573        C  0.79139086  0.32130810  0.75725408    -0.23000
C574        C  0.80647072  0.30703190  0.73858201    -0.23000
C575        C  0.68307597  0.23947018  0.78520185    -0.18300
C576        C  0.75260234  0.30979099  0.78727405    -0.18300
C577        C  0.80565131  0.25951335  0.72128934    -0.18300
C578        C  0.73703967  0.18766398  0.72113488    -0.18300
H579        H  0.68116960  0.27186223  0.83354949     0.14600
H580        H  0.71876636  0.31010446  0.83456213     0.14600
H581        H  0.78801798  0.17066525  0.69816603     0.14600
H582        H  0.82486611  0.20946754  0.69795077     0.14600
H583        H  0.65253069  0.19658400  0.75992155     0.12900
H584        H  0.68216262  0.16789246  0.72542810     0.12900
H585        H  0.79514109  0.34202603  0.76378913     0.12900
H586        H  0.82419419  0.31463381  0.72796367     0.12900
H587        H  0.72648178  0.26671110  0.76018915     0.26100
H588        H  0.75217804  0.24187835  0.73169672     0.26100
N589        N  0.72879798  0.73976282  0.21324574    -0.36600
N590        N  0.72059272  0.79240005  0.23966605    -0.57200
N591        N  0.77099661  0.78429698  0.26917796    -0.36600
N592        N  0.78027058  0.73279947  0.24104784    -0.57200
C593        C  0.70852793  0.75026905  0.19787722     0.27000
C594        C  0.73942832  0.71848064  0.19929391     0.27000
C595        C  0.76509224  0.81020769  0.27660962     0.22200
C596        C  0.79704568  0.77926746  0.27662875     0.27000
C597        C  0.69650306  0.79039371  0.22662484     0.35600
C598        C  0.71828050  0.81351145  0.25715629     0.35600
C599        C  0.77837379  0.70780926  0.22967198     0.35600
C600        C  0.80133492  0.73174657  0.25863380     0.35600
C601        C  0.70622601  0.73545729  0.17396772    -0.21900
C602        C  0.72571940  0.71538197  0.17487712    -0.21900
C603        C  0.78754090  0.82161039  0.28934397    -0.21900
C604        C  0.80762973  0.80218207  0.28933914    -0.21900
C605        C  0.67888102  0.81059354  0.23556382    -0.23000
C606        C  0.69272358  0.82530634  0.25487586    -0.23000
C607        C  0.79845321  0.69083872  0.23988488    -0.23000
C608        C  0.81322895  0.70610112  0.25797049    -0.23000
C609        C  0.69086845  0.77172762  0.20550430    -0.18300
C610        C  0.76015268  0.70081516  0.20862637    -0.18300
C611        C  0.81089150  0.75399181  0.27419791    -0.18300
C612        C  0.73948082  0.82326542  0.27394245    -0.18300
H613        H  0.69180147  0.73862820  0.15764593     0.14600
H614        H  0.72928271  0.70010965  0.15939420     0.14600
H615        H  0.78925390  0.84166733  0.29829992     0.14600
H616        H  0.82753182  0.80461135  0.29840407     0.14600
H617        H  0.65834525  0.81455495  0.22862936     0.12900
H618        H  0.68495517  0.84284029  0.26576253     0.12900
H619        H  0.80247729  0.66986044  0.23439944     0.12900
H620        H  0.83082489  0.69907717  0.26918387     0.12900
H621        H  0.73278968  0.74460939  0.23339265     0.26100
H622        H  0.75713037  0.76993058  0.26243674     0.26100
N623        N  0.72631806  0.72516918  0.77582926    -0.36600
N624        N  0.77783341  0.71965579  0.74795470    -0.57200
N625        N  0.76861813  0.77147486  0.72116863    -0.36600
N626        N  0.71604465  0.77591220  0.74728496    -0.57200
C627        C  0.73245166  0.69883235  0.78113821     0.27000
C628        C  0.69932536  0.72839331  0.78022255     0.27000
C629        C  0.78978566  0.76183364  0.70648663     0.27000
C630        C  0.75745214  0.79214102  0.70687871     0.27000
C631        C  0.78074446  0.69967619  0.76657682     0.35600
C632        C  0.80271198  0.72372995  0.73704411     0.35600
C633        C  0.69568349  0.77664084  0.76569487     0.35600
C634        C  0.71825517  0.80140527  0.73724946     0.35600
C635        C  0.70911881  0.68513801  0.78912385    -0.21900
C636        C  0.68816482  0.70380026  0.78848156    -0.21900
C637        C  0.79226119  0.77668890  0.68264209    -0.21900
C638        C  0.77182536  0.79590854  0.68292014    -0.21900
C639        C  0.80763028  0.69108527  0.76757896    -0.23000
C640        C  0.82153858  0.70624180  0.74869618    -0.23000
C641        C  0.68492597  0.80272646  0.76739371    -0.23000
C642        C  0.69917806  0.81841969  0.74921975    -0.23000
C643        C  0.75893409  0.68749961  0.78075816    -0.18300
C644        C  0.68508510  0.75344820  0.77891435    -0.18300
C645        C  0.73601754  0.80893599  0.71605462    -0.18300
C646        C  0.80809773  0.74145107  0.71516477    -0.18300
H647        H  0.70743874  0.66398724  0.79509565     0.14600
H648        H  0.66718003  0.69980083  0.79386175     0.14600
H649        H  0.80752807  0.77429518  0.66694661     0.14600
H650        H  0.76822410  0.81118458  0.66747451     0.14600
H651        H  0.81621205  0.67516944  0.78016065     0.12900
H652        H  0.84295708  0.70437770  0.74384212     0.12900
H653        H  0.66819384  0.80958905  0.77998722     0.12900
H654        H  0.69570425  0.83979417  0.74505601     0.12900
H655        H  0.74029611  0.74075110  0.77270837     0.26100
H656        H  0.76420086  0.76656634  0.74123316     0.26100
C657        C  0.73156457  0.10939640  0.68198225    -0.06100
C658        C  0.72012114  0.13259960  0.66969116    -0.17300
C659        C  0.72184149  0.15826326  0.68181455     0.11100
C660        C  0.73438649  0.16089067  0.70742143    -0.06100
C661        C  0.74522635  0.13778283  0.72018184    -0.17300
C662        C  0.74458593  0.11225022  0.70752697     0.11100
S663        S  0.70736628  0.18675133  0.66369327    -0.32300
S664        S  0.76255852  0.08498408  0.72423747    -0.32300
H665        H  0.77403662  0.07456909  0.70017047     0.29100
H666        H  0.72558575  0.20654471  0.67335706     0.29100
H667        H  0.70987069  0.13085599  0.65028342     0.19700
H668        H  0.75520875  0.13992309  0.73970966     0.19700
C669        C  0.72335914  0.88533599  0.67533123    -0.06100
C670        C  0.74382330  0.88290679  0.69511073    -0.17300
C671        C  0.74816157  0.85838245  0.70888031     0.11100
C672        C  0.73184317  0.83560534  0.70263388    -0.06100
C673        C  0.71127964  0.83796633  0.68304615    -0.17300
C674        C  0.70667090  0.86261105  0.66954260     0.11100
S675        S  0.77509565  0.85732162  0.73379881    -0.32300
S676        S  0.67849997  0.86395813  0.64612677    -0.32300
H677        H  0.67085348  0.89080769  0.65264452     0.29100
H678        H  0.76326525  0.83756031  0.75071886     0.29100
H679        H  0.75673376  0.90019652  0.69970010     0.19700
H680        H  0.69857295  0.82051739  0.67847519     0.19700
C681        C  0.73514921  0.84901366  0.28928594    -0.06100
C682        C  0.74693554  0.87297128  0.27928796    -0.17300
C683        C  0.74583161  0.89727172  0.29409893     0.11100
C684        C  0.73085865  0.89833863  0.31872714    -0.06100
C685        C  0.71870263  0.87432032  0.32843734    -0.17300
C686        C  0.72114161  0.84965778  0.31433428     0.11100
S687        S  0.76614012  0.92510894  0.28153622    -0.32300
S688        S  0.70575094  0.81986852  0.32932094    -0.32300
H689        H  0.72388311  0.80060080  0.31840141     0.29100
H690        H  0.77498188  0.93349364  0.30741727     0.29100
H691        H  0.75836252  0.87230990  0.26044200     0.19700
H692        H  0.70722676  0.87467810  0.34724209     0.19700
C693        C  0.76079384  0.38629268  0.82920628    -0.06100
C694        C  0.77795872  0.36435136  0.83586860    -0.17300
C695        C  0.77542026  0.33907442  0.82298403     0.11100
C696        C  0.75574488  0.33573048  0.80238791    -0.06100
C697        C  0.73831285  0.35736987  0.79593726    -0.17300
C698        C  0.74022497  0.38236711  0.80942540     0.11100
S699        S  0.79804147  0.31207927  0.83353548    -0.32300
S700        S  0.71475162  0.40759152  0.80148732    -0.32300
H701        H  0.71217619  0.41711524  0.82834118     0.29100
H702        H  0.78071055  0.29026002  0.82713817     0.29100
H703        H  0.79368050  0.36694276  0.85108454     0.19700
H704        H  0.72275564  0.35454583  0.78057381     0.19700
C705        C  0.77417191  0.61044725  0.82038364    -0.06100
C706        C  0.76690267  0.63352146  0.83575303    -0.17300
C707        C  0.76224259  0.65880097  0.82349967     0.11100
C708        C  0.76388228  0.66118514  0.79496963    -0.06100
C709        C  0.77083006  0.63820646  0.77947334    -0.17300
C710        C  0.77662960  0.61316273  0.79178765     0.11100
S711        S  0.75451769  0.68724016  0.84545196    -0.32300
S712        S  0.78868956  0.58634863  0.76981519    -0.32300
H713        H  0.80831384  0.57671190  0.78828173     0.29100
H714        H  0.76705643  0.70718981  0.82924344     0.29100
H715        H  0.76482922  0.63196766  0.85760922     0.19700
H716        H  0.77250105  0.64005131  0.75758143     0.19700
C717        C  0.76614624  0.62150005  0.17119738    -0.06100
C718        C  0.78629482  0.64118374  0.16623044    -0.17300
C719        C  0.78479949  0.66721645  0.17779110     0.11100
C720        C  0.76290100  0.67372928  0.19525745    -0.06100
C721        C  0.74270484  0.65415546  0.20016459    -0.17300
C722        C  0.74385272  0.62835284  0.18808137     0.11100
S723        S  0.81144184  0.69107601  0.16945470    -0.32300
S724        S  0.71551032  0.60582179  0.19391184    -0.32300
H725        H  0.71538221  0.59482163  0.16750973     0.29100
H726        H  0.79558988  0.71477680  0.17215832     0.29100
H727        H  0.80338826  0.63624558  0.15318247     0.19700
H728        H  0.72563818  0.65923521  0.21320450     0.19700
C729        C  0.76202750  0.34425307  0.20334388    -0.06100
C730        C  0.75818072  0.34594272  0.17521090    -0.17300
C731        C  0.76036105  0.37074949  0.16150781     0.11100
C732        C  0.76829961  0.39449292  0.17590068    -0.06100
C733        C  0.77164599  0.39280477  0.20425703    -0.17300
C734        C  0.76800409  0.36815798  0.21815925     0.11100
S735        S  0.75061492  0.37067834  0.12621027    -0.32300
S736        S  0.77103514  0.36856586  0.25471047    -0.32300
H737        H  0.75286558  0.34701173  0.25961287     0.29100
H738        H  0.73726351  0.39603064  0.12743825     0.29100
H739        H  0.75273908  0.32777744  0.16390969     0.19700
H740        H  0.77720700  0.41079270  0.21573689     0.19700
C741        C  0.73899639  0.16630397  0.28986290    -0.06100
C742        C  0.71995438  0.16691812  0.31106735    -0.17300
C743        C  0.71491911  0.14382183  0.32687681     0.11100
C744        C  0.72952277  0.11954100  0.32161993    -0.06100
C745        C  0.74856280  0.11903586  0.30028264    -0.17300
C746        C  0.75345575  0.14209695  0.28436760     0.11100
S747        S  0.68894571  0.14653063  0.35261533    -0.32300
S748        S  0.77884852  0.13947751  0.25794696    -0.32300
H749        H  0.76854115  0.16006038  0.24101144     0.29100
H750        H  0.67841324  0.12023555  0.34839699     0.29100
H751        H  0.70886599  0.18557294  0.31523505     0.19700
H752        H  0.75995504  0.10056900  0.29613490     0.19700
C753        C  0.26145983  0.10386651  0.68246798    -0.06100
C754        C  0.25537570  0.12773127  0.66787421    -0.17300
C755        C  0.25163517  0.15273292  0.68104735     0.11100
C756        C  0.25282194  0.15395494  0.70970717    -0.06100
C757        C  0.25810620  0.13004794  0.72439637    -0.17300
C758        C  0.26339398  0.10536709  0.71116289     0.11100
S759        S  0.24594241  0.18234596  0.66006083    -0.32300
S760        S  0.27494929  0.07753891  0.73207012    -0.32300
H761        H  0.29493954  0.06870906  0.71354544     0.29100
H762        H  0.25944363  0.20097132  0.67705505     0.29100
H763        H  0.25384029  0.12704077  0.64592192     0.19700
H764        H  0.25953982  0.13099537  0.74636065     0.19700
C765        C  0.26911514  0.11295787  0.33039235    -0.06100
C766        C  0.24712142  0.11757302  0.31278303    -0.17300
C767        C  0.24447490  0.14214131  0.29862460     0.11100
C768        C  0.26401465  0.16292403  0.30242281    -0.06100
C769        C  0.28613284  0.15824965  0.31980134    -0.17300
C770        C  0.28919081  0.13340113  0.33336043     0.11100
S771        S  0.21551037  0.14586758  0.27637027    -0.32300
S772        S  0.31980532  0.12874596  0.35300348    -0.32300
H773        H  0.32314538  0.10111360  0.34613630     0.29100
H774        H  0.22822570  0.16339249  0.25769580     0.29100
H775        H  0.23171164  0.10199895  0.31021416     0.19700
H776        H  0.30127381  0.17404757  0.32259884     0.19700
C777        C  0.10677996  0.26243416  0.68225375    -0.06100
C778        C  0.13073513  0.25558999  0.66806992    -0.17300
C779        C  0.15585071  0.25353718  0.68131214     0.11100
C780        C  0.15712151  0.25679650  0.70980155    -0.06100
C781        C  0.13342904  0.26380197  0.72404232    -0.17300
C782        C  0.10868814  0.26780044  0.71056091     0.11100
S783        S  0.18552849  0.24681645  0.66067785    -0.32300
S784        S  0.08142001  0.28196555  0.73059174    -0.32300
H785        H  0.07245866  0.29972878  0.71000781     0.29100
H786        H  0.20416032  0.26068983  0.67736622     0.29100
H787        H  0.13005814  0.25177596  0.64641231     0.19700
H788        H  0.13445461  0.26702738  0.74581585     0.19700
C789        C  0.88252008  0.27100213  0.68070394    -0.06100
C790        C  0.88132831  0.25666297  0.70542896    -0.17300
C791        C  0.85680433  0.25336833  0.71946825     0.11100
C792        C  0.83250445  0.26357209  0.70807932    -0.06100
C793        C  0.83357129  0.27836589  0.68379025    -0.17300
C794        C  0.85830073  0.28299951  0.67050081     0.11100
S795        S  0.85779519  0.23526026  0.75136960    -0.32300
S796        S  0.85744106  0.30590934  0.64190667    -0.32300
H797        H  0.88270401  0.31802325  0.64780423     0.29100
H798        H  0.83521950  0.24817024  0.76330879     0.29100
H799        H  0.89953597  0.24748832  0.71380319     0.19700
H800        H  0.81501415  0.28703499  0.67556397     0.19700
C801        C  0.16234249  0.26006787  0.30232170    -0.06100
C802        C  0.15853191  0.28107137  0.32123018    -0.17300
C803        C  0.13360814  0.28446305  0.33447723     0.11100
C804        C  0.11215953  0.26603242  0.32914698    -0.06100
C805        C  0.11609023  0.24501542  0.31019031    -0.17300
C806        C  0.14087707  0.24188649  0.29664921     0.11100
S807        S  0.13020863  0.31341793  0.35679246    -0.32300
S808        S  0.14392318  0.21406460  0.27281076    -0.32300
H809        H  0.16354010  0.22604596  0.25584104     0.29100
H810        H  0.10305586  0.31909441  0.34967801     0.29100
H811        H  0.17499939  0.29517151  0.32532044     0.19700
H812        H  0.09978289  0.23074728  0.30606619     0.19700
C813        C  0.88944347  0.26638529  0.31929796    -0.06100
C814        C  0.86908189  0.28613066  0.32297885    -0.17300
C815        C  0.84478079  0.28512009  0.30819450     0.11100
C816        C  0.84093188  0.26418836  0.28886844    -0.06100
C817        C  0.86138290  0.24465370  0.28493646    -0.17300
C818        C  0.88533180  0.24523427  0.30021554     0.11100
S819        S  0.81941078  0.31082715  0.31522673    -0.32300
S820        S  0.90880621  0.21731383  0.29574581    -0.32300
H821        H  0.91567680  0.21522502  0.32342190     0.29100
H822        H  0.79650947  0.29448754  0.31011623     0.29100
H823        H  0.87205736  0.30235008  0.33763422     0.19700
H824        H  0.85814593  0.22821357  0.27057687     0.19700
C825        C  0.23497437  0.33122998  0.80249214    -0.06100
C826        C  0.25189393  0.35322158  0.79585807    -0.17300
C827        C  0.24958408  0.37825216  0.80937252     0.11100
C828        C  0.22925299  0.38183585  0.82950355    -0.06100
C829        C  0.21250993  0.35964920  0.83623232    -0.17300
C830        C  0.21530416  0.33443021  0.82319693     0.11100
S831        S  0.27419567  0.40409907  0.80093703    -0.32300
S832        S  0.19297853  0.30724449  0.83372615    -0.32300
H833        H  0.21110519  0.28575194  0.82826730     0.29100
H834        H  0.27693139  0.41385251  0.82768607     0.29100
H835        H  0.26734889  0.35066417  0.78032972     0.19700
H836        H  0.19693085  0.36200893  0.85166027     0.19700
C837        C  0.22490643  0.38857907  0.18229530    -0.06100
C838        C  0.23187007  0.36521050  0.16723584    -0.17300
C839        C  0.23559092  0.33989446  0.17976589     0.11100
C840        C  0.23348919  0.33780598  0.20832083    -0.06100
C841        C  0.22645554  0.36104834  0.22343138    -0.17300
C842        C  0.22133845  0.38606694  0.21075024     0.11100
S843        S  0.24284838  0.31108912  0.15811640    -0.32300
S844        S  0.20856173  0.41319756  0.23191357    -0.32300
H845        H  0.19040356  0.42337218  0.21227164     0.29100
H846        H  0.23038292  0.29143883  0.17473638     0.29100
H847        H  0.23449616  0.36659208  0.14542331     0.19700
H848        H  0.22425251  0.35946972  0.24529530     0.19700
C849        C  0.38474214  0.22335717  0.82569309    -0.06100
C850        C  0.36038532  0.21967697  0.84040282    -0.17300
C851        C  0.33499491  0.22064390  0.82769949     0.11100
C852        C  0.33339057  0.22798392  0.80005455    -0.06100
C853        C  0.35743695  0.23119594  0.78512516    -0.17300
C854        C  0.38289107  0.22716098  0.79712566     0.11100
S855        S  0.30538342  0.21293778  0.84802756    -0.32300
S856        S  0.41122717  0.22427459  0.77406542    -0.32300
H857        H  0.42362709  0.20286665  0.78853163     0.29100
H858        H  0.28941124  0.20288497  0.82655610     0.29100
H859        H  0.36078218  0.21593888  0.86203403     0.19700
H860        H  0.35626154  0.23565070  0.76357854     0.19700
C861        C  0.60638430  0.23639408  0.82704480    -0.06100
C862        C  0.62586185  0.21588975  0.83151327    -0.17300
C863        C  0.65092474  0.21613907  0.81804278     0.11100
C864        C  0.65629883  0.23674984  0.79880920    -0.06100
C865        C  0.63671241  0.25695256  0.79394735    -0.17300
C866        C  0.61219679  0.25743211  0.80830686     0.11100
S867        S  0.67533547  0.19009254  0.82682263    -0.32300
S868        S  0.59054232  0.28670717  0.80346565    -0.32300
H869        H  0.58327502  0.28907821  0.83103094     0.29100
H870        H  0.69875577  0.20595222  0.82261955     0.29100
H871        H  0.62171156  0.19975286  0.84594604     0.19700
H872        H  0.64118581  0.27323445  0.77975769     0.19700
C873        C  0.33897207  0.24365207  0.21185563    -0.06100
C874        C  0.36221757  0.25619426  0.22256227    -0.17300
C875        C  0.38697018  0.25574456  0.20848964     0.11100
C876        C  0.38915283  0.24075462  0.18392855    -0.06100
C877        C  0.36580171  0.22783682  0.17359977    -0.17300
C878        C  0.34073935  0.22964766  0.18689006     0.11100
S879        S  0.41393532  0.27658566  0.22199549    -0.32300
S880        S  0.31187892  0.21330452  0.17112539    -0.32300
H881        H  0.29208275  0.23172031  0.18055700     0.29100
H882        H  0.42281444  0.28582203  0.19642363     0.29100
H883        H  0.36069240  0.26744908  0.24146810     0.19700
H884        H  0.36695235  0.21620639  0.15492308     0.19700
C885        C  0.66306514  0.24421154  0.20136125    -0.06100
C886        C  0.66109966  0.24916182  0.17339675    -0.17300
C887        C  0.63622272  0.24694755  0.15984611     0.11100
C888        C  0.61295027  0.23785032  0.17421629    -0.06100
C889        C  0.61494683  0.23344001  0.20237382    -0.17300
C890        C  0.63956398  0.23713516  0.21617728     0.11100
S891        S  0.63543136  0.25812692  0.12497461    -0.32300
S892        S  0.64070041  0.23347260  0.25271763    -0.32300
H893        H  0.61306928  0.22697560  0.25645400     0.29100
H894        H  0.60962578  0.27044456  0.12701576     0.29100
H895        H  0.67901799  0.25550280  0.16220276     0.19700
H896        H  0.59720168  0.22688502  0.21362315     0.19700
C897        C  0.25520354  0.83104881  0.70402796    -0.06100
C898        C  0.25265003  0.83138363  0.67563957    -0.17300
C899        C  0.25508857  0.85559510  0.66086228     0.11100
C900        C  0.26174317  0.88011873  0.67451155    -0.06100
C901        C  0.26445460  0.87966301  0.70296693    -0.17300
C902        C  0.26071224  0.85567018  0.71786263     0.11100
S903        S  0.24742178  0.85384364  0.62510085    -0.32300
S904        S  0.26291343  0.85800722  0.75440814    -0.32300
H905        H  0.24462483  0.83674570  0.76003367     0.29100
H906        H  0.23321893  0.87874707  0.62450080     0.29100
H907        H  0.24788117  0.81265277  0.66497783     0.19700
H908        H  0.26934985  0.89823099  0.71381903     0.19700
C909        C  0.21682391  0.60619498  0.82468920    -0.06100
C910        C  0.23976347  0.60878200  0.80783710    -0.17300
C911        C  0.24519532  0.63305932  0.79394820     0.11100
C912        C  0.22755667  0.65558060  0.79723934    -0.06100
C913        C  0.20464638  0.65304176  0.81408701    -0.17300
C914        C  0.19882489  0.62854717  0.82739367     0.11100
S915        S  0.27498014  0.63399602  0.77249007    -0.32300
S916        S  0.16737002  0.62676191  0.84619213    -0.32300
H917        H  0.16183236  0.59947025  0.83944685     0.29100
H918        H  0.26453103  0.65248804  0.75334578     0.29100
H919        H  0.25369993  0.59179061  0.80559578     0.19700
H920        H  0.19082734  0.67013584  0.81632092     0.19700
C921        C  0.15410164  0.73251114  0.70388208    -0.06100
C922        C  0.15431490  0.71943522  0.67858267    -0.17300
C923        C  0.13030349  0.71559497  0.66384399     0.11100
C924        C  0.10549079  0.72647699  0.67382919    -0.06100
C925        C  0.10538655  0.73940097  0.69935396    -0.17300
C926        C  0.12922543  0.74200496  0.71468903     0.11100
S927        S  0.13272287  0.69496286  0.63362199    -0.32300
S928        S  0.12662542  0.75809938  0.74757503    -0.32300
H929        H  0.14874073  0.74458535  0.75966407     0.29100
H930        H  0.10792297  0.68134944  0.63804967     0.29100
H931        H  0.17331648  0.71146700  0.67063523     0.19700
H932        H  0.08660499  0.74767620  0.70745693     0.19700
C933        C  0.88181827  0.72856752  0.66996672    -0.06100
C934        C  0.88102334  0.74840042  0.69054332    -0.17300
C935        C  0.85734520  0.75315959  0.70559288     0.11100
C936        C  0.83381699  0.73770945  0.69994174    -0.06100
C937        C  0.83450085  0.71788872  0.67943862    -0.17300
C938        C  0.85825504  0.71308581  0.66437883     0.11100
S939        S  0.85866112  0.77933409  0.73140323    -0.32300
S940        S  0.85862577  0.68605013  0.63943283    -0.32300
H941        H  0.83108957  0.67860942  0.64190920     0.29100
H942        H  0.83606953  0.77114349  0.74680575     0.29100
H943        H  0.89901583  0.76039783  0.69487311     0.19700
H944        H  0.81635613  0.70601587  0.67550924     0.19700
C945        C  0.88802702  0.74785272  0.31542616    -0.06100
C946        C  0.86525488  0.73364784  0.32536364    -0.17300
C947        C  0.83988086  0.73550691  0.31264467     0.11100
C948        C  0.83728738  0.75095712  0.28860187    -0.06100
C949        C  0.86006516  0.76461767  0.27822025    -0.17300
C950        C  0.88504009  0.76406214  0.29179801     0.11100
S951        S  0.81180633  0.71744799  0.32799924    -0.32300
S952        S  0.91122758  0.78631688  0.27902567    -0.32300
H953        H  0.92011766  0.79463362  0.30490966     0.29100
H954        H  0.79100837  0.73471356  0.31862012     0.29100
H955        H  0.86711145  0.72109933  0.34336932     0.19700
H956        H  0.85795643  0.77687810  0.26002089     0.19700
C957        C  0.38226230  0.75706716  0.81951674    -0.06100
C958        C  0.36139619  0.77546294  0.82628587    -0.17300
C959        C  0.33560964  0.77356125  0.81448069     0.11100
C960        C  0.33049145  0.75289868  0.79520233    -0.06100
C961        C  0.35125409  0.73451997  0.78833906    -0.17300
C962        C  0.37695807  0.73618509  0.80043589     0.11100
S963        S  0.31037037  0.79834119  0.82459909    -0.32300
S964        S  0.40147571  0.71032742  0.79152750    -0.32300
H965        H  0.41232112  0.70783753  0.81786021     0.29100
H966        H  0.28741719  0.78195201  0.81995551     0.29100
H967        H  0.36524582  0.79160246  0.84082412     0.19700
H968        H  0.34724389  0.71854899  0.77365661     0.19700
C969        C  0.60783313  0.76268019  0.81961432    -0.06100
C970        C  0.60953525  0.76584899  0.79127864    -0.17300
C971        C  0.63401418  0.76173077  0.77735800     0.11100
C972        C  0.65789951  0.75552470  0.79212588    -0.06100
C973        C  0.65621553  0.75193335  0.82033188    -0.17300
C974        C  0.63143994  0.75457386  0.83407905     0.11100
S975        S  0.63334581  0.76468286  0.74080233    -0.32300
S976        S  0.63132987  0.74546234  0.86954747    -0.32300
H977        H  0.60582863  0.73247691  0.86856614     0.29100
H978        H  0.65458568  0.74609149  0.73587777     0.29100
H979        H  0.59164729  0.77163936  0.77977179     0.19700
H980        H  0.67435614  0.74655218  0.83167540     0.19700
C981        C  0.61458783  0.77894611  0.16329103    -0.06100
C982        C  0.63585593  0.79707012  0.15730123    -0.17300
C983        C  0.66109494  0.79493957  0.17033705     0.11100
C984        C  0.66498844  0.77462636  0.19025424    -0.06100
C985        C  0.64403862  0.75606893  0.19569937    -0.17300
C986        C  0.61914440  0.75765337  0.18207694     0.11100
S987        S  0.68735039  0.81880722  0.16091511    -0.32300
S988        S  0.59471049  0.73103871  0.18849506    -0.32300
H989        H  0.58481338  0.72998866  0.16168575     0.29100
H990        H  0.70958496  0.80162889  0.16639932     0.29100
H991        H  0.63267996  0.81319757  0.14260208     0.19700
H992        H  0.64731905  0.73995396  0.21039719     0.19700
C993        C  0.27264060  0.88895231  0.32704993    -0.06100
C994        C  0.26669099  0.86510890  0.34173883    -0.17300
C995        C  0.26408237  0.83985178  0.32876197     0.11100
C996        C  0.26619748  0.83834278  0.30016175    -0.06100
C997        C  0.27189109  0.86210417  0.28542200    -0.17300
C998        C  0.27615313  0.88702226  0.29852516     0.11100
S999        S  0.25840549  0.81035127  0.34990568    -0.32300
S1000       S  0.28833387  0.91466512  0.27776301    -0.32300
H1001       H  0.30684044  0.92437379  0.29731289     0.29100
H1002       H  0.27164419  0.79151020  0.33288764     0.29100
H1003       H  0.26416704  0.86604748  0.36359016     0.19700
H1004       H  0.27410171  0.86095724  0.26352875     0.19700
C1005       C  0.24506323  0.66236229  0.20494046    -0.06100
C1006       C  0.23795197  0.66328328  0.17737857    -0.17300
C1007       C  0.23652859  0.63959858  0.16157385     0.11100
C1008       C  0.23890972  0.61359283  0.17413565    -0.06100
C1009       C  0.24529964  0.61290944  0.20210283    -0.17300
C1010       C  0.24947878  0.63675715  0.21719632     0.11100
S1011       S  0.23476492  0.64493350  0.12543217    -0.32300
S1012       S  0.26049038  0.63302975  0.25198394    -0.32300
H1013       H  0.27526588  0.65749891  0.25324655     0.29100
H1014       H  0.25429669  0.62477822  0.11949727     0.29100
H1015       H  0.23522490  0.68292065  0.16766532     0.19700
H1016       H  0.24756518  0.59368160  0.21254110     0.19700
C1017       C  0.34177662  0.76718274  0.20388923    -0.06100
C1018       C  0.36472139  0.75112096  0.20937261    -0.17300
C1019       C  0.38896774  0.75458685  0.19486906     0.11100
C1020       C  0.39076493  0.77517328  0.17483981    -0.06100
C1021       C  0.36779534  0.79137128  0.16947810    -0.17300
C1022       C  0.34333251  0.78754304  0.18363382     0.11100
S1023       S  0.41615975  0.73092259  0.20179382    -0.32300
S1024       S  0.31502975  0.80937176  0.17495203    -0.32300
H1025       H  0.29420566  0.79117708  0.18217280     0.29100
H1026       H  0.42428999  0.72821846  0.17450406     0.29100
H1027       H  0.36346230  0.73527077  0.22464692     0.19700
H1028       H  0.36892194  0.80714816  0.15411692     0.19700
C1029       C  0.16571554  0.73930410  0.29497865    -0.06100
C1030       C  0.14286820  0.73472900  0.27853029    -0.17300
C1031       C  0.11688200  0.73139951  0.28976102     0.11100
C1032       C  0.11306107  0.73438852  0.31821294    -0.06100
C1033       C  0.13604046  0.73953057  0.33450985    -0.17300
C1034       C  0.16218620  0.74136044  0.32339498     0.11100
S1035       S  0.09030469  0.72147202  0.26660121    -0.32300
S1036       S  0.19016057  0.74622420  0.34666894    -0.32300
H1037       H  0.20968614  0.73223865  0.33108083     0.29100
H1038       H  0.07900821  0.70206499  0.28434350     0.29100
H1039       H  0.14548997  0.73290496  0.25672830     0.19700
H1040       H  0.13379528  0.74202388  0.35625712     0.19700
loop_ 
_geom_bond_atom_site_label_1 
_geom_bond_atom_site_label_2 
_geom_bond_distance 
_geom_bond_site_symmetry_2 
_ccdc_geom_bond_type 
N1            C6   1.353       .  A
N1            C5   1.353       .  A
N1           H33   1.039       .  S
N2            C9   1.353       .  A
N2           C10   1.354       .  A
N3            C8   1.355       .  A
N3            C7   1.355       .  A
N3           H34   1.035       .  S
N4           C11   1.351       .  A
N4           C12   1.351       .  A
C5           C13   1.388       .  A
C5           C21   1.416       .  A
C6           C22   1.414       .  A
C6           C14   1.386       .  A
C7           C15   1.390       .  A
C7           C24   1.423       .  A
C8           C23   1.418       .  A
C8           C16   1.385       .  A
C9           C21   1.417       .  A
C9           C17   1.386       .  A
C10          C24   1.420       .  A
C10          C18   1.387       .  A
C11          C19   1.387       .  A
C11          C22   1.413       .  A
C12          C20   1.385       .  A
C12          C23   1.411       .  A
C13          C14   1.375       .  A
C13          H25   1.082       .  S
C14          H26   1.082       .  S
C15          C16   1.372       .  A
C15          H27   1.081       .  S
C16          H28   1.082       .  S
C17          C18   1.372       .  A
C17          H29   1.082       .  S
C18          H30   1.081       .  S
C19          C20   1.372       .  A
C19          H31   1.082       .  S
C20          H32   1.082       .  S
C21        C1029   1.493       .  S
C22         C996   1.490       .  S
C23        C1017   1.488       .  S
C24        C1005   1.496       .  S
N35          C39   1.345       .  A
N35          N36   1.322       .  A
N35         Cu43   2.078       .  S
N36          C37   1.346       .  A
N36         Cu42   2.076       .  S
C37          C38   1.384       .  A
C37          H40   1.082       .  S
C38          C39   1.385       .  A
C38        C1020   1.481       .  S
C39          H41   1.082       .  S
Cu42         N45   2.076       .  S
Cu43         N53   2.077       .  S
Cu44         N46   2.063       .  S
Cu44         N52   2.063       .  S
N45          C49   1.345       .  A
N45          N46   1.322       .  A
N46          C47   1.343       .  A
C47          C48   1.380       .  A
C47          H50   1.082       .  S
C48          C49   1.384       .  A
C48          C72   1.468   1_554  S
C49          H51   1.082       .  S
N52          C56   1.345       .  A
N52          N53   1.322       .  A
N53          C54   1.344       .  A
C54          C55   1.384       .  A
C54          H57   1.082       .  S
C55          C56   1.382       .  A
C55         C981   1.476       .  S
C56          H58   1.082       .  S
N59          C63   1.346       .  A
N59          N60   1.322       .  A
N59         Cu67   2.074       .  S
N60          C61   1.341       .  A
N60         Cu66   2.062       .  S
C61          C62   1.381       .  A
C61          H64   1.082       .  S
C62          C63   1.386       .  A
C62         C957   1.477       .  S
C63          H65   1.082       .  S
Cu66         N69   2.061       .  S
Cu67         N77   2.074       .  S
Cu68         N70   2.069       .  S
Cu68         N76   2.070       .  S
N69          C73   1.344       .  A
N69          N70   1.321       .  A
N70          C71   1.344       .  A
C71          C72   1.383       .  A
C71          H74   1.082       .  S
C72          C73   1.382       .  A
C73          H75   1.082       .  S
N76          C80   1.343       .  A
N76          N77   1.322       .  A
N77          C78   1.344       .  A
C78          C79   1.386       .  A
C78          H81   1.082       .  S
C79          C80   1.386       .  A
C79         C969   1.484       .  S
C80          H82   1.081       .  S
N83          C87   1.344       .  A
N83          N84   1.320       .  A
N83         Cu91   2.071   1_655  S
N84          C85   1.343       .  A
N84         Cu90   2.066       .  S
C85          C86   1.386       .  A
C85          H88   1.082       .  S
C86          C87   1.387       .  A
C86         C945   1.484       .  S
C87          H89   1.081       .  S
Cu90         N93   2.066       .  S
Cu91        N101   2.072       .  S
Cu92         N94   2.076       .  S
Cu92        N100   2.076       .  S
N93          C97   1.343       .  A
N93          N94   1.322   1_655  A
N94          C95   1.346       .  A
C95          C96   1.384   1_455  A
C95          H98   1.082       .  S
C96          C97   1.381       .  A
C96         C120   1.469       .  S
C97          H99   1.082       .  S
N100        C104   1.344       .  A
N100        N101   1.320       .  A
N101        C102   1.345       .  A
C102        C103   1.389       .  A
C102        H105   1.080       .  S
C103        C104   1.389       .  A
C103       C1032   1.492       .  S
C104        H106   1.081       .  S
N107        C111   1.345       .  A
N107        N108   1.320       .  A
N107       Cu115   2.070   1_455  S
N108        C109   1.343       .  A
N108       Cu114   2.068       .  S
C109        C110   1.386       .  A
C109        H112   1.081       .  S
C110        C111   1.387       .  A
C110        C924   1.485       .  S
C111        H113   1.082       .  S
Cu114       N117   2.068       .  S
Cu115       N125   2.070       .  S
Cu116       N118   2.072       .  S
Cu116       N124   2.072       .  S
N117        C121   1.345       .  A
N117        N118   1.322   1_455  A
N118        C119   1.344       .  A
C119        C120   1.383       .  A
C119        H122   1.082       .  S
C120        C121   1.382   1_655  A
C121        H123   1.082       .  S
N124        C128   1.345       .  A
N124        N125   1.322       .  A
N125        C126   1.343       .  A
C126        C127   1.383       .  A
C126        H129   1.082       .  S
C127        C128   1.384       .  A
C127        C933   1.478       .  S
C128        H130   1.082       .  S
N131        C136   1.354       .  A
N131        C135   1.352       .  A
N131        H163   1.038       .  S
N132        C139   1.350       .  A
N132        C140   1.351       .  A
N133        C138   1.353       .  A
N133        C137   1.353       .  A
N133        H164   1.038       .  S
N134        C141   1.351       .  A
N134        C142   1.351       .  A
C135        C143   1.387       .  A
C135        C151   1.414       .  A
C136        C152   1.415       .  A
C136        C144   1.387       .  A
C137        C145   1.387       .  A
C137        C154   1.416       .  A
C138        C153   1.414       .  A
C138        C146   1.387       .  A
C139        C151   1.411       .  A
C139        C147   1.386       .  A
C140        C154   1.412       .  A
C140        C148   1.386       .  A
C141        C149   1.386       .  A
C141        C152   1.413       .  A
C142        C150   1.386       .  A
C142        C153   1.413       .  A
C143        C144   1.376       .  A
C143        H155   1.082       .  S
C144        H156   1.082       .  S
C145        C146   1.374       .  A
C145        H157   1.082       .  S
C146        H158   1.082       .  S
C147        C148   1.373       .  A
C147        H159   1.082       .  S
C148        H160   1.082       .  S
C149        C150   1.372       .  A
C149        H161   1.082       .  S
C150        H162   1.082       .  S
C151        C960   1.482       .  S
C152        C912   1.489       .  S
C153        C921   1.484       .  S
C154        C897   1.491       .  S
N165        C169   1.344       .  A
N165        N166   1.320       .  A
N165       Cu173   2.065       .  S
N166        C167   1.343       .  A
N166       Cu172   2.070       .  S
C167        C168   1.387       .  A
C167        H170   1.082       .  S
C168        C169   1.387       .  A
C168        C876   1.485       .  S
C169        H171   1.081       .  S
Cu172       N175   2.070       .  S
Cu173       N183   2.065       .  S
Cu174       N176   2.061       .  S
Cu174       N182   2.061       .  S
N175        C179   1.344       .  A
N175        N176   1.322       .  A
N176        C177   1.343       .  A
C177        C178   1.380       .  A
C177        H180   1.082       .  S
C178        C179   1.382       .  A
C178        C202   1.465   1_554  S
C179        H181   1.082       .  S
N182        C186   1.343       .  A
N182        N183   1.320       .  A
N183        C184   1.342       .  A
C184        C185   1.385       .  A
C184        H187   1.082       .  S
C185        C186   1.386       .  A
C185        C888   1.481       .  S
C186        H188   1.081       .  S
N189        C193   1.341       .  A
N189        N190   1.318       .  A
N189       Cu197   2.064       .  S
N190        C191   1.342       .  A
N190       Cu196   2.064       .  S
C191        C192   1.391       .  A
C191        H194   1.081       .  S
C192        C193   1.390       .  A
C192        C849   1.494       .  S
C193        H195   1.078       .  S
Cu196       N199   2.064       .  S
Cu197       N207   2.065       .  S
Cu198       N200   2.066       .  S
Cu198       N206   2.066       .  S
N199        C203   1.344       .  A
N199        N200   1.322       .  A
N200        C201   1.343       .  A
C201        C202   1.381       .  A
C201        H204   1.082       .  S
C202        C203   1.381       .  A
C203        H205   1.082       .  S
N206        C210   1.343       .  A
N206        N207   1.321       .  A
N207        C208   1.343       .  A
C208        C209   1.384       .  A
C208        H211   1.082       .  S
C209        C210   1.383       .  A
C209        C861   1.477       .  S
C210        H212   1.082       .  S
N213        C217   1.345       .  A
N213        N214   1.319       .  A
N213       Cu221   2.084       .  S
N214        C215   1.344       .  A
N214       Cu220   2.077       .  S
C215        C216   1.393       .  A
C215        H218   1.077       .  S
C216        C217   1.395       .  A
C216       C1008   1.504       .  S
C217        H219   1.081       .  S
Cu220       N223   2.076       .  S
Cu221       N231   2.085       .  S
Cu222       N224   2.074       .  S
Cu222       N230   2.074       .  S
N223        C227   1.346       .  A
N223        N224   1.322       .  A
N224        C225   1.346       .  A
C225        C226   1.384       .  A
C225        H228   1.082       .  S
C226        C227   1.384       .  A
C226        C250   1.474   1_554  S
C227        H229   1.082       .  S
N230        C234   1.344       .  A
N230        N231   1.322       .  A
N231        C232   1.347       .  A
C232        C233   1.389       .  A
C232        H235   1.081       .  S
C233        C234   1.386       .  A
C233        C837   1.488       .  S
C234        H236   1.082       .  S
N237        C241   1.346       .  A
N237        N238   1.322       .  A
N237       Cu245   2.077       .  S
N238        C239   1.346       .  A
N238       Cu244   2.080       .  S
C239        C240   1.386       .  A
C239        H242   1.082       .  S
C240        C241   1.386       .  A
C240        C828   1.485       .  S
C241        H243   1.081       .  S
Cu244       N247   2.079       .  S
Cu245       N255   2.077       .  S
Cu246       N248   2.076       .  S
Cu246       N254   2.076       .  S
N247        C251   1.346       .  A
N247        N248   1.323       .  A
N248        C249   1.346       .  A
C249        C250   1.384       .  A
C249        H252   1.082       .  S
C250        C251   1.384       .  A
C251        H253   1.082       .  S
N254        C258   1.345       .  A
N254        N255   1.322       .  A
N255        C256   1.345       .  A
C256        C257   1.384       .  A
C256        H259   1.082       .  S
C257        C258   1.385       .  A
C257        C909   1.481       .  S
C258        H260   1.082       .  S
N261        C265   1.343       .  A
N261        N262   1.321       .  A
N261       Cu269   2.062   1_455  S
N262        C263   1.343       .  A
N262       Cu268   2.060       .  S
C263        C264   1.382       .  A
C263        H266   1.082       .  S
C264        C265   1.382       .  A
C264        C804   1.472       .  S
C265        H267   1.082       .  S
Cu268       N271   2.060       .  S
Cu269       N279   2.063       .  S
Cu270       N272   2.079       .  S
Cu270       N278   2.079       .  S
N271        C275   1.342       .  A
N271        N272   1.322   1_455  A
N272        C273   1.346       .  A
C273        C274   1.385       .  A
C273        H276   1.082       .  S
C274        C275   1.380   1_655  A
C274        C298   1.469       .  S
C275        H277   1.082       .  S
N278        C282   1.346       .  A
N278        N279   1.323       .  A
N279        C280   1.343       .  A
C280        C281   1.381       .  A
C280        H283   1.082       .  S
C281        C282   1.384       .  A
C281        C813   1.475       .  S
C282        H284   1.082       .  S
N285        C289   1.343       .  A
N285        N286   1.320       .  A
N285       Cu293   2.072   1_455  S
N286        C287   1.345       .  A
N286       Cu292   2.077       .  S
C287        C288   1.390       .  A
C287        H290   1.082       .  S
C288        C289   1.388       .  A
C288        C777   1.492       .  S
C289        H291   1.079       .  S
Cu292       N295   2.077       .  S
Cu293       N303   2.073       .  S
Cu294       N296   2.065       .  S
Cu294       N302   2.064       .  S
N295        C299   1.344       .  A
N295        N296   1.322   1_455  A
N296        C297   1.345       .  A
C297        C298   1.381       .  A
C297        H300   1.082       .  S
C298        C299   1.384   1_655  A
C299        H301   1.082       .  S
N302        C306   1.342       .  A
N302        N303   1.320       .  A
N303        C304   1.345       .  A
C304        C305   1.389       .  A
C304        H307   1.082       .  S
C305        C306   1.386       .  A
C305        C789   1.487       .  S
C306        H308   1.080       .  S
N309        C313   1.344       .  A
N309        N310   1.321       .  A
N309       Cu317   2.075   1_565  S
N310        C311   1.345       .  A
N310       Cu316   2.074       .  S
C311        C312   1.387       .  A
C311        H314   1.082       .  S
C312        C313   1.387       .  A
C312        C993   1.487       .  S
C313        H315   1.081       .  S
Cu316       N319   2.074       .  S
Cu317       N327   2.075       .  S
Cu318       N320   2.070       .  S
Cu318       N326   2.069       .  S
N319        C323   1.345       .  A
N319        N320   1.322   1_565  A
N320        C321   1.345       .  A
C321        C322   1.383   1_545  A
C321        H324   1.082       .  S
C322        C323   1.383       .  A
C322        C346   1.471       .  S
C323        H325   1.082       .  S
N326        C330   1.344       .  A
N326        N327   1.322       .  A
N327        C328   1.345       .  A
C328        C329   1.384       .  A
C328        H331   1.082       .  S
C329        C330   1.384       .  A
C329        C765   1.479       .  S
C330        H332   1.082       .  S
N333        C337   1.344       .  A
N333        N334   1.321       .  A
N333       Cu341   2.074       .  S
N334        C335   1.346       .  A
N334       Cu340   2.076       .  S
C335        C336   1.388       .  A
C335        H338   1.081       .  S
C336        C337   1.386       .  A
C336        C900   1.487       .  S
C337        H339   1.082       .  S
Cu340       N343   2.075       .  S
Cu341       N351   2.074   1_565  S
Cu342       N344   2.072       .  S
Cu342       N350   2.072       .  S
N343        C347   1.345       .  A
N343        N344   1.322   1_565  A
N344        C345   1.345       .  A
C345        C346   1.383   1_545  A
C345        H348   1.082       .  S
C346        C347   1.383       .  A
C347        H349   1.082       .  S
N350        C354   1.344       .  A
N350        N351   1.321       .  A
N351        C352   1.344       .  A
C352        C353   1.387       .  A
C352        H355   1.081       .  S
C353        C354   1.387       .  A
C353        C753   1.486       .  S
C354        H356   1.082       .  S
N357        C362   1.353       .  A
N357        C361   1.351       .  A
N357        H389   1.039       .  S
N358        C365   1.352       .  A
N358        C366   1.352       .  A
N359        C364   1.353       .  A
N359        C363   1.354       .  A
N359        H390   1.035       .  S
N360        C367   1.352       .  A
N360        C368   1.351       .  A
C361        C369   1.388       .  A
C361        C377   1.414       .  A
C362        C378   1.413       .  A
C362        C370   1.386       .  A
C363        C371   1.386       .  A
C363        C380   1.417       .  A
C364        C379   1.421       .  A
C364        C372   1.389       .  A
C365        C377   1.415       .  A
C365        C373   1.387       .  A
C366        C380   1.413       .  A
C366        C374   1.385       .  A
C367        C375   1.385       .  A
C367        C378   1.414       .  A
C368        C376   1.388       .  A
C368        C379   1.417       .  A
C369        C370   1.376       .  A
C369        H381   1.082       .  S
C370        H382   1.082       .  S
C371        C372   1.373       .  A
C371        H383   1.082       .  S
C372        H384   1.081       .  S
C373        C374   1.373       .  A
C373        H385   1.082       .  S
C374        H386   1.082       .  S
C375        C376   1.369       .  A
C375        H387   1.082       .  S
C376        H388   1.081       .  S
C377        C780   1.489       .  S
C378        C756   1.490       .  S
C379        C852   1.486       .  S
C380        C825   1.490       .  S
N391        C396   1.355       .  A
N391        C395   1.352       .  A
N391        H423   1.038       .  S
N392        C399   1.351       .  A
N392        C400   1.353       .  A
N393        C398   1.350       .  A
N393        C397   1.351       .  A
N393        H424   1.038       .  S
N394        C401   1.351       .  A
N394        C402   1.349       .  A
C395        C403   1.389       .  A
C395        C411   1.417       .  A
C396        C412   1.416       .  A
C396        C404   1.385       .  A
C397        C405   1.387       .  A
C397        C414   1.412       .  A
C398        C413   1.411       .  A
C398        C406   1.387       .  A
C399        C411   1.414       .  A
C399        C407   1.387       .  A
C400        C414   1.414       .  A
C400        C408   1.386       .  A
C401        C409   1.386       .  A
C401        C412   1.412       .  A
C402        C410   1.386       .  A
C402        C413   1.410       .  A
C403        C404   1.374       .  A
C403        H415   1.081       .  S
C404        H416   1.082       .  S
C405        C406   1.374       .  A
C405        H417   1.082       .  S
C406        H418   1.082       .  S
C407        C408   1.373       .  A
C407        H419   1.082       .  S
C408        H420   1.082       .  S
C409        C410   1.371       .  A
C409        H421   1.082       .  S
C410        H422   1.082       .  S
C411        C873   1.483       .  S
C412        C840   1.492       .  S
C413        C801   1.477       .  S
C414        C768   1.488       .  S
N425        C430   1.351       .  A
N425        C429   1.351       .  A
N425        H457   1.040       .  S
N426        C433   1.348       .  A
N426        C434   1.348       .  A
N427        C432   1.350       .  A
N427        C431   1.352       .  A
N427        H458   1.040       .  S
N428        C435   1.349       .  A
N428        C436   1.349       .  A
C429        C437   1.387       .  A
C429        C445   1.412       .  A
C430        C446   1.413       .  A
C430        C438   1.387       .  A
C431        C439   1.386       .  A
C431        C448   1.409       .  A
C432        C447   1.412       .  A
C432        C440   1.388       .  A
C433        C445   1.410       .  A
C433        C441   1.387       .  A
C434        C448   1.406       .  A
C434        C442   1.385       .  A
C435        C443   1.386       .  A
C435        C446   1.411       .  A
C436        C444   1.385       .  A
C436        C447   1.409       .  A
C437        C438   1.376       .  A
C437        H449   1.082       .  S
C438        H450   1.082       .  S
C439        C440   1.374       .  A
C439        H451   1.082       .  S
C440        H452   1.082       .  S
C441        C442   1.374       .  A
C441        H453   1.082       .  S
C442        H454   1.082       .  S
C443        C444   1.375       .  A
C443        H455   1.082       .  S
C444        H456   1.082       .  S
C445        C885   1.484       .  S
C446        C729   1.486       .  S
C447        C816   1.481       .  S
C448        C741   1.478       .  S
N459        C463   1.348       .  A
N459        N460   1.323       .  A
N459       Cu467   2.086       .  S
N460        C461   1.344       .  A
N460       Cu466   2.074       .  S
C461        C462   1.382       .  A
C461        H464   1.082       .  S
C462        C463   1.387       .  A
C462        C717   1.482       .  S
C463        H465   1.082       .  S
Cu466       N469   2.075       .  S
Cu467       N477   2.086       .  S
Cu468       N470   2.076       .  S
Cu468       N476   2.074       .  S
N469        C473   1.346       .  A
N469        N470   1.321       .  A
N470        C471   1.346       .  A
C471        C472   1.385       .  A
C471        H474   1.082       .  S
C472        C473   1.384       .  A
C472        C496   1.475   1_554  S
C473        H475   1.082       .  S
N476        C480   1.343       .  A
N476        N477   1.322       .  A
N477        C478   1.347       .  A
C478        C479   1.389       .  A
C478        H481   1.082       .  S
C479        C480   1.386       .  A
C479        C732   1.488       .  S
C480        H482   1.081       .  S
N483        C487   1.344       .  A
N483        N484   1.321       .  A
N483       Cu491   2.069       .  S
N484        C485   1.345       .  A
N484       Cu490   2.075       .  S
C485        C486   1.386       .  A
C485        H488   1.082       .  S
C486        C487   1.385       .  A
C486        C693   1.482       .  S
C487        H489   1.081       .  S
Cu490       N493   2.075       .  S
Cu491       N501   2.069       .  S
Cu492       N494   2.084       .  S
Cu492       N500   2.083       .  S
N493        C497   1.345       .  A
N493        N494   1.323       .  A
N494        C495   1.347       .  A
C495        C496   1.385       .  A
C495        H498   1.082       .  S
C496        C497   1.383       .  A
C497        H499   1.082       .  S
N500        C504   1.345       .  A
N500        N501   1.321       .  A
N501        C502   1.345       .  A
C502        C503   1.387       .  A
C502        H505   1.081       .  S
C503        C504   1.389       .  A
C503        C705   1.488       .  S
C504        H506   1.082       .  S
N507        C511   1.342       .  A
N507        N508   1.320       .  A
N507       Cu515   2.059   1_565  S
N508        C509   1.346       .  A
N508       Cu514   2.078       .  S
C509        C510   1.389       .  A
C509        H512   1.082       .  S
C510        C511   1.385       .  A
C510        C684   1.486       .  S
C511        H513   1.081       .  S
Cu514       N517   2.078       .  S
Cu515       N525   2.059       .  S
Cu516       N518   2.086       .  S
Cu516       N524   2.084       .  S
N517        C521   1.345       .  A
N517        N518   1.324   1_565  A
N518        C519   1.348       .  A
C519        C520   1.386       .  A
C519        H522   1.082       .  S
C520        C521   1.382   1_545  A
C520        C544   1.475       .  S
C521        H523   1.082       .  S
N524        C528   1.347       .  A
N524        N525   1.322       .  A
N525        C526   1.341       .  A
C526        C527   1.380       .  A
C526        H529   1.082       .  S
C527        C528   1.387       .  A
C527        C744   1.478       .  S
C528        H530   1.082       .  S
N531        C535   1.343       .  A
N531        N532   1.323       .  A
N531       Cu539   2.067       .  S
N532        C533   1.346       .  A
N532       Cu538   2.082       .  S
C533        C534   1.385       .  A
C533        H536   1.082       .  S
C534        C535   1.381       .  A
C534        C669   1.477       .  S
C535        H537   1.082       .  S
Cu538       N541   2.082       .  S
Cu539       N549   2.066   1_565  S
Cu540       N542   2.071       .  S
Cu540       N548   2.070       .  S
N541        C545   1.346       .  A
N541        N542   1.322   1_565  A
N542        C543   1.346       .  A
C543        C544   1.383       .  A
C543        H546   1.082       .  S
C544        C545   1.386   1_545  A
C545        H547   1.082       .  S
N548        C552   1.341       .  A
N548        N549   1.321       .  A
N549        C550   1.345       .  A
C550        C551   1.387       .  A
C550        H553   1.081       .  S
C551        C552   1.385       .  A
C551        C657   1.484       .  S
C552        H554   1.082       .  S
N555        C560   1.352       .  A
N555        C559   1.351       .  A
N555        H587   1.038       .  S
N556        C563   1.350       .  A
N556        C564   1.350       .  A
N557        C562   1.354       .  A
N557        C561   1.353       .  A
N557        H588   1.036       .  S
N558        C565   1.350       .  A
N558        C566   1.350       .  A
C559        C567   1.387       .  A
C559        C575   1.412       .  A
C560        C576   1.411       .  A
C560        C568   1.386       .  A
C561        C569   1.388       .  A
C561        C578   1.418       .  A
C562        C577   1.417       .  A
C562        C570   1.387       .  A
C563        C575   1.410       .  A
C563        C571   1.385       .  A
C564        C578   1.412       .  A
C564        C572   1.387       .  A
C565        C573   1.385       .  A
C565        C576   1.410       .  A
C566        C574   1.388       .  A
C566        C577   1.413       .  A
C567        C568   1.372       .  A
C567        H579   1.082       .  S
C568        H580   1.082       .  S
C569        C570   1.374       .  A
C569        H581   1.082       .  S
C570        H582   1.082       .  S
C571        C572   1.373       .  A
C571        H583   1.082       .  S
C572        H584   1.082       .  S
C573        C574   1.371       .  A
C573        H585   1.082       .  S
C574        H586   1.082       .  S
C575        C864   1.482       .  S
C576        C696   1.482       .  S
C577        C792   1.484       .  S
C578        C660   1.483       .  S
N589        C594   1.354       .  A
N589        C593   1.352       .  A
N589        H621   1.038       .  S
N590        C597   1.350       .  A
N590        C598   1.351       .  A
N591        C596   1.354       .  A
N591        C595   1.354       .  A
N591        H622   1.036       .  S
N592        C599   1.351       .  A
N592        C600   1.350       .  A
C593        C601   1.387       .  A
C593        C609   1.414       .  A
C594        C610   1.413       .  A
C594        C602   1.386       .  A
C595        C603   1.387       .  A
C595        C612   1.417       .  A
C596        C611   1.419       .  A
C596        C604   1.388       .  A
C597        C609   1.413       .  A
C597        C605   1.386       .  A
C598        C612   1.413       .  A
C598        C606   1.386       .  A
C599        C607   1.385       .  A
C599        C610   1.412       .  A
C600        C608   1.387       .  A
C600        C611   1.414       .  A
C601        C602   1.374       .  A
C601        H613   1.082       .  S
C602        H614   1.082       .  S
C603        C604   1.371       .  A
C603        H615   1.082       .  S
C604        H616   1.081       .  S
C605        C606   1.374       .  A
C605        H617   1.082       .  S
C606        H618   1.082       .  S
C607        C608   1.371       .  A
C607        H619   1.082       .  S
C608        H620   1.082       .  S
C609        C984   1.483       .  S
C610        C720   1.489       .  S
C611        C948   1.485       .  S
C612        C681   1.487       .  S
N623        C628   1.352       .  A
N623        C627   1.353       .  A
N623        H655   1.040       .  S
N624        C631   1.350       .  A
N624        C632   1.350       .  A
N625        C630   1.351       .  A
N625        C629   1.351       .  A
N625        H656   1.039       .  S
N626        C633   1.349       .  A
N626        C634   1.350       .  A
C627        C635   1.386       .  A
C627        C643   1.414       .  A
C628        C644   1.415       .  A
C628        C636   1.387       .  A
C629        C637   1.387       .  A
C629        C646   1.411       .  A
C630        C645   1.410       .  A
C630        C638   1.386       .  A
C631        C643   1.412       .  A
C631        C639   1.387       .  A
C632        C646   1.410       .  A
C632        C640   1.386       .  A
C633        C641   1.387       .  A
C633        C644   1.411       .  A
C634        C642   1.385       .  A
C634        C645   1.409       .  A
C635        C636   1.377       .  A
C635        H647   1.082       .  S
C636        H648   1.082       .  S
C637        C638   1.377       .  A
C637        H649   1.082       .  S
C638        H650   1.082       .  S
C639        C640   1.373       .  A
C639        H651   1.082       .  S
C640        H652   1.082       .  S
C641        C642   1.373       .  A
C641        H653   1.082       .  S
C642        H654   1.082       .  S
C643        C708   1.489       .  S
C644        C972   1.488       .  S
C645        C672   1.481       .  S
C646        C936   1.479       .  S
C657        C658   1.406       .  A
C657        C662   1.417       .  A
C658        C659   1.396       .  A
C658        H667   1.083       .  S
C659        C660   1.409       .  A
C659        S663   1.804       .  S
C660        C661   1.401       .  A
C661        C662   1.399       .  A
C661        H668   1.084       .  S
C662        S664   1.801       .  S
S663        H666   1.405       .  S
S664        H665   1.407       .  S
C669        C670   1.404       .  A
C669        C674   1.414       .  A
C670        C671   1.398       .  A
C670        H679   1.084       .  S
C671        C672   1.410       .  A
C671        S675   1.805       .  S
C672        C673   1.401       .  A
C673        C674   1.399       .  A
C673        H680   1.084       .  S
C674        S676   1.802       .  S
S675        H678   1.405       .  S
S676        H677   1.407       .  S
C681        C682   1.401       .  A
C681        C686   1.411       .  A
C682        C683   1.398       .  A
C682        H691   1.084       .  S
C683        C684   1.418       .  A
C683        S687   1.802       .  S
C684        C685   1.406       .  A
C685        C686   1.400       .  A
C685        H692   1.083       .  S
C686        S688   1.805       .  S
S687        H690   1.407       .  S
S688        H689   1.405       .  S
C693        C694   1.406       .  A
C693        C698   1.416       .  A
C694        C695   1.399       .  A
C694        H703   1.083       .  S
C695        C696   1.410       .  A
C695        S699   1.805       .  S
C696        C697   1.400       .  A
C697        C698   1.398       .  A
C697        H704   1.084       .  S
C698        S700   1.802       .  S
S699        H702   1.405       .  S
S700        H701   1.407       .  S
C705        C706   1.407       .  A
C705        C710   1.419       .  A
C706        C707   1.398       .  A
C706        H715   1.083       .  S
C707        C708   1.411       .  A
C707        S711   1.804       .  S
C708        C709   1.403       .  A
C709        C710   1.400       .  A
C709        H716   1.084       .  S
C710        S712   1.802       .  S
S711        H714   1.406       .  S
S712        H713   1.407       .  S
C717        C718   1.405       .  A
C717        C722   1.414       .  A
C718        C719   1.400       .  A
C718        H727   1.084       .  S
C719        C720   1.413       .  A
C719        S723   1.805       .  S
C720        C721   1.403       .  A
C721        C722   1.400       .  A
C721        H728   1.084       .  S
C722        S724   1.802       .  S
S723        H726   1.405       .  S
S724        H725   1.406       .  S
C729        C730   1.400       .  A
C729        C734   1.412       .  A
C730        C731   1.396       .  A
C730        H739   1.084       .  S
C731        C732   1.418       .  A
C731        S735   1.802       .  S
C732        C733   1.407       .  A
C733        C734   1.402       .  A
C733        H740   1.083       .  S
C734        S736   1.805       .  S
S735        H738   1.407       .  S
S736        H737   1.406       .  S
C741        C742   1.401       .  A
C741        C746   1.409       .  A
C742        C743   1.398       .  A
C742        H751   1.084       .  S
C743        C744   1.414       .  A
C743        S747   1.802       .  S
C744        C745   1.406       .  A
C745        C746   1.398       .  A
C745        H752   1.084       .  S
C746        S748   1.805       .  S
S747        H750   1.406       .  S
S748        H749   1.404       .  S
C753        C754   1.406       .  A
C753        C758   1.417       .  A
C754        C755   1.399       .  A
C754        H763   1.083       .  S
C755        C756   1.413       .  A
C755        S759   1.805       .  S
C756        C757   1.403       .  A
C757        C758   1.399       .  A
C757        H764   1.084       .  S
C758        S760   1.802       .  S
S759        H762   1.406       .  S
S760        H761   1.407       .  S
C765        C766   1.403       .  A
C765        C770   1.415       .  A
C766        C767   1.399       .  A
C766        H775   1.084       .  S
C767        C768   1.414       .  A
C767        S771   1.805       .  S
C768        C769   1.402       .  A
C769        C770   1.399       .  A
C769        H776   1.084       .  S
C770        S772   1.802       .  S
S771        H774   1.406       .  S
S772        H773   1.407       .  S
C777        C778   1.408       .  A
C777        C782   1.420       .  A
C778        C779   1.399       .  A
C778        H787   1.082       .  S
C779        C780   1.412       .  A
C779        S783   1.806       .  S
C780        C781   1.400       .  A
C781        C782   1.398       .  A
C781        H788   1.084       .  S
C782        S784   1.801       .  S
S783        H786   1.406       .  S
S784        H785   1.407       .  S
C789        C790   1.407       .  A
C789        C794   1.419       .  A
C790        C791   1.398       .  A
C790        H799   1.083       .  S
C791        C792   1.410       .  A
C791        S795   1.805       .  S
C792        C793   1.400       .  A
C793        C794   1.398       .  A
C793        H800   1.084       .  S
C794        S796   1.802       .  S
S795        H798   1.405       .  S
S796        H797   1.407       .  S
C801        C802   1.400       .  A
C801        C806   1.410       .  A
C802        C803   1.396       .  A
C802        H811   1.084       .  S
C803        C804   1.414       .  A
C803        S807   1.803       .  S
C804        C805   1.403       .  A
C805        C806   1.396       .  A
C805        H812   1.084       .  S
C806        S808   1.805       .  S
S807        H810   1.407       .  S
S808        H809   1.405       .  S
C813        C814   1.403       .  A
C813        C818   1.414       .  A
C814        C815   1.399       .  A
C814        H823   1.084       .  S
C815        C816   1.412       .  A
C815        S819   1.805       .  S
C816        C817   1.401       .  A
C817        C818   1.397       .  A
C817        H824   1.084       .  S
C818        S820   1.803       .  S
S819        H822   1.405       .  S
S820        H821   1.407       .  S
C825        C826   1.402       .  A
C825        C830   1.412       .  A
C826        C827   1.401       .  A
C826        H835   1.084       .  S
C827        C828   1.417       .  A
C827        S831   1.802       .  S
C828        C829   1.405       .  A
C829        C830   1.400       .  A
C829        H836   1.084       .  S
C830        S832   1.804       .  S
S831        H834   1.407       .  S
S832        H833   1.405       .  S
C837        C838   1.407       .  A
C837        C842   1.416       .  A
C838        C839   1.399       .  A
C838        H847   1.083       .  S
C839        C840   1.413       .  A
C839        S843   1.805       .  S
C840        C841   1.404       .  A
C841        C842   1.400       .  A
C841        H848   1.084       .  S
C842        S844   1.802       .  S
S843        H846   1.406       .  S
S844        H845   1.407       .  S
C849        C850   1.410       .  A
C849        C854   1.421       .  A
C850        C851   1.396       .  A
C850        H859   1.080       .  S
C851        C852   1.410       .  A
C851        S855   1.805       .  S
C852        C853   1.400       .  A
C853        C854   1.397       .  A
C853        H860   1.084       .  S
C854        S856   1.801       .  S
S855        H858   1.406       .  S
S856        H857   1.408       .  S
C861        C862   1.405       .  A
C861        C866   1.414       .  A
C862        C863   1.398       .  A
C862        H871   1.084       .  S
C863        C864   1.411       .  A
C863        S867   1.804       .  S
C864        C865   1.401       .  A
C865        C866   1.396       .  A
C865        H872   1.084       .  S
C866        S868   1.803       .  S
S867        H870   1.405       .  S
S868        H869   1.407       .  S
C873        C874   1.401       .  A
C873        C878   1.410       .  A
C874        C875   1.399       .  A
C874        H883   1.084       .  S
C875        C876   1.418       .  A
C875        S879   1.802       .  S
C876        C877   1.406       .  A
C877        C878   1.396       .  A
C877        H884   1.083       .  S
C878        S880   1.805       .  S
S879        H882   1.407       .  S
S880        H881   1.405       .  S
C885        C886   1.401       .  A
C885        C890   1.409       .  A
C886        C887   1.397       .  A
C886        H895   1.084       .  S
C887        C888   1.417       .  A
C887        S891   1.802       .  S
C888        C889   1.406       .  A
C889        C890   1.399       .  A
C889        H896   1.082       .  S
C890        S892   1.808       .  S
S891        H894   1.407       .  S
S892        H893   1.407       .  S
C897        C898   1.403       .  A
C897        C902   1.413       .  A
C898        C899   1.399       .  A
C898        H907   1.084       .  S
C899        C900   1.417       .  A
C899        S903   1.802       .  S
C900        C901   1.407       .  A
C901        C902   1.400       .  A
C901        H908   1.083       .  S
C902        S904   1.805       .  S
S903        H906   1.407       .  S
S904        H905   1.405       .  S
C909        C910   1.405       .  A
C909        C914   1.414       .  A
C910        C911   1.400       .  A
C910        H919   1.084       .  S
C911        C912   1.413       .  A
C911        S915   1.804       .  S
C912        C913   1.403       .  A
C913        C914   1.399       .  A
C913        H920   1.084       .  S
C914        S916   1.803       .  S
S915        H918   1.405       .  S
S916        H917   1.407       .  S
C921        C922   1.400       .  A
C921        C926   1.411       .  A
C922        C923   1.398       .  A
C922        H931   1.084       .  S
C923        C924   1.417       .  A
C923        S927   1.802       .  S
C924        C925   1.407       .  A
C925        C926   1.399       .  A
C925        H932   1.083       .  S
C926        S928   1.804       .  S
S927        H930   1.407       .  S
S928        H929   1.405       .  S
C933        C934   1.404       .  A
C933        C938   1.412       .  A
C934        C935   1.398       .  A
C934        H943   1.084       .  S
C935        C936   1.411       .  A
C935        S939   1.807       .  S
C936        C937   1.401       .  A
C937        C938   1.401       .  A
C937        H944   1.083       .  S
C938        S940   1.807       .  S
S939        H942   1.403       .  S
S940        H941   1.407       .  S
C945        C946   1.407       .  A
C945        C950   1.417       .  A
C946        C947   1.398       .  A
C946        H955   1.083       .  S
C947        C948   1.411       .  A
C947        S951   1.806       .  S
C948        C949   1.401       .  A
C949        C950   1.397       .  A
C949        H956   1.084       .  S
C950        S952   1.802       .  S
S951        H954   1.405       .  S
S952        H953   1.407       .  S
C957        C958   1.405       .  A
C957        C962   1.414       .  A
C958        C959   1.397       .  A
C958        H967   1.084       .  S
C959        C960   1.411       .  A
C959        S963   1.805       .  S
C960        C961   1.402       .  A
C961        C962   1.399       .  A
C961        H968   1.084       .  S
C962        S964   1.802       .  S
S963        H966   1.405       .  S
S964        H965   1.406       .  S
C969        C970   1.405       .  A
C969        C974   1.418       .  A
C970        C971   1.398       .  A
C970        H979   1.083       .  S
C971        C972   1.413       .  A
C971        S975   1.805       .  S
C972        C973   1.402       .  A
C973        C974   1.398       .  A
C973        H980   1.084       .  S
C974        S976   1.802       .  S
S975        H978   1.406       .  S
S976        H977   1.407       .  S
C981        C982   1.404       .  A
C981        C986   1.413       .  A
C982        C983   1.400       .  A
C982        H991   1.084       .  S
C983        C984   1.411       .  A
C983        S987   1.804       .  S
C984        C985   1.401       .  A
C985        C986   1.397       .  A
C985        H992   1.084       .  S
C986        S988   1.803       .  S
S987        H990   1.405       .  S
S988        H989   1.407       .  S
C993        C994   1.407       .  A
C993        C998   1.417       .  A
C994        C995   1.400       .  A
C994       H1003   1.083       .  S
C995        C996   1.413       .  A
C995        S999   1.805       .  S
C996        C997   1.402       .  A
C997        C998   1.398       .  A
C997       H1004   1.084       .  S
C998       S1000   1.802       .  S
S999       H1002   1.406       .  S
S1000      H1001   1.407       .  S
C1005      C1006   1.401       .  A
C1005      C1010   1.411       .  A
C1006      C1007   1.400       .  A
C1006      H1015   1.084       .  S
C1007      C1008   1.423       .  A
C1007      S1011   1.800       .  S
C1008      C1009   1.412       .  A
C1009      C1010   1.401       .  A
C1009      H1016   1.080       .  S
C1010      S1012   1.805       .  S
S1011      H1014   1.407       .  S
S1012      H1013   1.405       .  S
C1017      C1018   1.401       .  A
C1017      C1022   1.414       .  A
C1018      C1019   1.399       .  A
C1018      H1027   1.084       .  S
C1019      C1020   1.415       .  A
C1019      S1023   1.802       .  S
C1020      C1021   1.405       .  A
C1021      C1022   1.401       .  A
C1021      H1028   1.084       .  S
C1022      S1024   1.806       .  S
S1023      H1026   1.407       .  S
S1024      H1025   1.404       .  S
C1029      C1030   1.402       .  A
C1029      C1034   1.412       .  A
C1030      C1031   1.400       .  A
C1030      H1039   1.084       .  S
C1031      C1032   1.420       .  A
C1031      S1035   1.801       .  S
C1032      C1033   1.408       .  A
C1033      C1034   1.399       .  A
C1033      H1040   1.082       .  S
C1034      S1036   1.805       .  S
S1035      H1038   1.407       .  S
S1036      H1037   1.406       .  S
