geometry optimzed in LAMMPS
_audit_creation_date              2020-12-01 
_audit_creation_method            'lammps2cif' 
_symmetry_space_group_name_H-M    'P1' 
_symmetry_Int_Tables_number       1 
_symmetry_cell_setting            triclinic 
loop_ 
_symmetry_equiv_pos_as_xyz 
  x,y,z 
_cell_length_a                    50.25798605 
_cell_length_b                    50.440350589392274 
_cell_length_c                    37.68980084871812 
_cell_angle_alpha                 89.87091618129833 
_cell_angle_beta                  89.8658081353125 
_cell_angle_gamma                 89.97850558723059 
loop_ 
_atom_site_label 
_atom_site_type_symbol 
_atom_site_fract_x 
_atom_site_fract_y 
_atom_site_fract_z 
_atom_site_charge 
O1          O  0.33461518  0.22507508  0.30845288    -0.81500
C2          C  0.32352861  0.13756061  0.40364159     0.97800
O3          O  0.34071827  0.14041027  0.37945301    -0.70700
O4          O  0.31992147  0.14899125  0.31601583    -0.74200
Al5        Al  0.34600875  0.16698234  0.34363768     1.49000
C6          C  0.30534208  0.15987025  0.29291913     0.93100
O7          O  0.27013254  0.19922614  0.35053676    -0.80500
O8          O  0.32642318  0.23023947  0.40811388    -0.74000
Al9        Al  0.30368424  0.21074763  0.33148566     1.90100
O10         O  0.28148450  0.20000265  0.40640369    -0.73100
O11         O  0.35507580  0.18775866  0.41959285    -0.72900
O12         O  0.30998394  0.15714596  0.41376342    -0.78600
O13         O  0.37492822  0.18246452  0.36846908    -0.76800
O14         O  0.32269117  0.19038410  0.36094157    -1.12900
O15         O  0.35650112  0.18785329  0.30402208    -0.72100
C16         C  0.35272594  0.21138887  0.29401438     0.98600
C17         C  0.26365537  0.19976025  0.38298616     0.95000
Al18       Al  0.31860489  0.19342168  0.40780646     1.55600
O19         O  0.29979198  0.18428763  0.29526704    -0.76800
C20         C  0.37606938  0.18741235  0.40122369     0.99100
C21         C  0.31481313  0.24780551  0.39006110     0.94000
O22         O  0.30353949  0.24158850  0.36128321    -0.82100
C23         C  0.26193515  0.05270174  0.00592694     0.80500
N24         N  0.24933967  0.07166798  0.98652185    -0.77800
C25         C  0.24062468  0.09440294  0.00189560     0.82900
N26         N  0.24460253  0.09776681  0.03724546    -0.77800
C27         C  0.25728424  0.07919773  0.05715887     0.83000
N28         N  0.26618288  0.05667110  0.04122430    -0.79500
C29         C  0.45118642  0.24646510  0.00127284     0.80500
N30         N  0.44563045  0.24494330  0.03661007    -0.77800
C31         C  0.42184228  0.25327010  0.04964035     0.82900
N32         N  0.40351153  0.26299197  0.02670429    -0.77800
C33         C  0.40840984  0.26478401  0.99132742     0.83000
N34         N  0.43247754  0.25651086  0.97866359    -0.79500
O35         O  0.28785397  0.83853897  0.80491076    -0.81500
C36         C  0.36805197  0.82222458  0.90841592     0.97800
O37         O  0.36742928  0.84069973  0.88577796    -0.70700
O38         O  0.36210391  0.81811981  0.82329475    -0.74200
Al39       Al  0.34393842  0.84629386  0.84625811     1.49000
C40         C  0.35197700  0.80332266  0.79998909     0.93100
O41         O  0.30596850  0.77375568  0.85087907    -0.80500
O42         O  0.27559812  0.83232252  0.90407980    -0.74000
Al43       Al  0.29813820  0.80729749  0.83018164     1.90100
O44         O  0.30227911  0.78525717  0.90661567    -0.73100
O45         O  0.31937378  0.85831727  0.91884932    -0.72900
O46         O  0.34691008  0.81042000  0.91687970    -0.78600
O47         O  0.32813015  0.87656377  0.86734690    -0.76800
O48         O  0.31776665  0.82512794  0.86135590    -1.12900
O49         O  0.32723952  0.85666978  0.80294783    -0.72100
C50         C  0.30405907  0.85447445  0.79060804     0.98600
C51         C  0.30319422  0.76752498  0.88307221     0.95000
Al52       Al  0.31168408  0.82191803  0.90769093     1.55600
O53         O  0.32697226  0.80052505  0.79815556    -0.76800
C54         C  0.32144055  0.87876434  0.89950789     0.99100
C55         C  0.25839198  0.82154102  0.88456402     0.94000
O56         O  0.26523260  0.80996880  0.85623395    -0.82100
C57         C  0.44499642  0.76327334  0.51171479     0.80500
N58         N  0.42570289  0.75200276  0.49114906    -0.77800
C59         C  0.40288946  0.74232788  0.50600346     0.82900
N60         N  0.39949169  0.74449097  0.54162622    -0.77800
C61         C  0.41841683  0.75554110  0.56233936     0.83000
N62         N  0.44107769  0.76472686  0.54733432    -0.79500
C63         C  0.27725623  0.95445718  0.49469908     0.80500
N64         N  0.28013515  0.94774176  0.52948706    -0.77800
C65         C  0.27323705  0.92329880  0.54148373     0.82900
N66         N  0.26349632  0.90542414  0.51805662    -0.77800
C67         C  0.26032164  0.91164754  0.48328430     0.83000
N68         N  0.26700548  0.93632550  0.47161440    -0.79500
O69         O  0.66141980  0.78616945  0.30833096    -0.81500
C70         C  0.67346177  0.87142772  0.40500794     0.97800
O71         O  0.65543435  0.86942711  0.38188460    -0.70700
O72         O  0.67647777  0.86224084  0.31887574    -0.74200
Al73       Al  0.65006598  0.84370282  0.34483771     1.49000
C74         C  0.69046047  0.85198525  0.29476539     0.93100
O75         O  0.72502225  0.81215168  0.34910950    -0.80500
O76         O  0.66990168  0.77831825  0.40617452    -0.74000
Al77       Al  0.69215625  0.80026283  0.33059971     1.90100
O78         O  0.71488836  0.80914833  0.40561476    -0.73100
O79         O  0.64026010  0.82010402  0.41954594    -0.72900
O80         O  0.68595908  0.85116599  0.41504422    -0.78600
O81         O  0.62094795  0.82794132  0.36853919    -0.76800
O82         O  0.67312830  0.81961752  0.36110133    -1.12900
O83         O  0.63978607  0.82374880  0.30376036    -0.72100
C84         C  0.64389182  0.80022775  0.29349276     0.98600
C85         C  0.73204616  0.81111231  0.38118349     0.95000
Al86       Al  0.67728169  0.81517112  0.40765690     1.55600
O87         O  0.69551547  0.82744269  0.29530722    -0.76800
C88         C  0.61939947  0.82184504  0.40088871     0.99100
C89         C  0.68224382  0.76163767  0.38747875     0.94000
O90         O  0.69335199  0.76863023  0.35890468    -0.82100
C91         C  0.73128288  0.95214260  0.00457394     0.80500
N92         N  0.72506263  0.94584127  0.03872514    -0.77800
C93         C  0.72987681  0.92127659  0.05183537     0.82900
N94         N  0.74127024  0.90283826  0.03070844    -0.77800
C95         C  0.74795804  0.90856951  0.99668726     0.83000
N96         N  0.74282939  0.93325919  0.98358306    -0.79500
C97         C  0.54715229  0.76404978  0.00349932     0.80500
N98         N  0.56517266  0.75399674  0.98018788    -0.77800
C99         C  0.58838123  0.74360480  0.99207098     0.82900
N100        N  0.59366855  0.74336522  0.02731524    -0.77800
C101        C  0.57601708  0.75335302  0.05109763     0.83000
N102        N  0.55271524  0.76368702  0.03884342    -0.79500
O103        O  0.71204677  0.17049523  0.80339677    -0.81500
C104        C  0.63000368  0.18506167  0.90576517     0.97800
O105        O  0.63101555  0.16736090  0.88215549    -0.70700
O106        O  0.63704927  0.18644795  0.81819978    -0.74200
Al107      Al  0.65577693  0.16044027  0.84437196     1.49000
C108        C  0.64678393  0.20189028  0.79532473     0.93100
O109        O  0.69071791  0.23496389  0.84539955    -0.80500
O110        O  0.72348312  0.17983479  0.90153767    -0.74000
Al111      Al  0.70000126  0.20146074  0.82669621     1.90100
O112        O  0.69348717  0.22527166  0.90197550    -0.73100
O113        O  0.68180773  0.15131771  0.91815038    -0.72900
O114        O  0.65084793  0.19708117  0.91481697    -0.78600
O115        O  0.67148289  0.13157423  0.86837736    -0.76800
O116        O  0.68085854  0.18332887  0.85873381    -1.12900
O117        O  0.67448800  0.14845395  0.80305540    -0.72100
C118        C  0.69770773  0.15217720  0.79125602     0.98600
C119        C  0.69294827  0.24216291  0.87719070     0.95000
Al120      Al  0.68674702  0.18792605  0.90506438     1.55600
O121        O  0.67150339  0.20619241  0.79401775    -0.76800
C122        C  0.67909097  0.13037506  0.90011071     0.99100
C123        C  0.74031086  0.19046699  0.88118697     0.94000
O124        O  0.73274620  0.20116044  0.85263052    -0.82100
C125        C  0.54662796  0.25206837  0.51173135     0.80500
N126        N  0.56503580  0.26514973  0.49170201    -0.77800
C127        C  0.58816244  0.27376158  0.50645805     0.82900
N128        N  0.59243298  0.26901161  0.54135096    -0.77800
C129        C  0.57426480  0.25622603  0.56170879     0.83000
N130        N  0.55142708  0.24741958  0.54666959    -0.79500
C131        C  0.73535763  0.04763496  0.50457735     0.80500
N132        N  0.74574263  0.06797995  0.48486469    -0.77800
C133        C  0.75452415  0.09057479  0.50094473     0.82900
N134        N  0.75315739  0.09228198  0.53675580    -0.77800
C135        C  0.74272593  0.07251856  0.55665298     0.83000
N136        N  0.73351772  0.05039721  0.54046361    -0.79500
O137        O  0.78355386  0.32866655  0.29994200    -0.81500
C138        C  0.86597626  0.31695885  0.40153177     0.97800
O139        O  0.86457898  0.33475274  0.37787750    -0.70700
O140        O  0.85883090  0.31552027  0.31367637    -0.74200
Al141      Al  0.83958724  0.34116308  0.34006654     1.49000
C142        C  0.84945567  0.30018251  0.29051894     0.93100
O143        O  0.80703360  0.26552783  0.34479407    -0.80500
O144        O  0.77320199  0.32316346  0.39782438    -0.74000
Al145      Al  0.79660618  0.29850739  0.32444597     1.90100
O146        O  0.80212254  0.27697941  0.40046507    -0.73100
O147        O  0.81578433  0.35037551  0.41444818    -0.72900
O148        O  0.84535808  0.30443355  0.41066026    -0.78600
O149        O  0.82333012  0.37007885  0.36395019    -0.76800
O150        O  0.81532536  0.31785857  0.35530996    -1.12900
O151        O  0.82016990  0.35222180  0.29892995    -0.72100
C152        C  0.79725522  0.34724952  0.28697716     0.98600
C153        C  0.80433618  0.25931157  0.37701642     0.95000
Al154      Al  0.80964859  0.31408572  0.40178289     1.55600
O155        O  0.82504539  0.29413011  0.29100077    -0.76800
C156        C  0.81726258  0.37137502  0.39634479     0.99100
C157        C  0.75649587  0.31177606  0.37815005     0.94000
O158        O  0.76403887  0.29886758  0.35122193    -0.82100
C159        C  0.95353398  0.26231594  0.00239147     0.80500
N160        N  0.94709852  0.26549244  0.03728186    -0.77800
C161        C  0.92295982  0.25763769  0.04990224     0.82900
N162        N  0.90541807  0.24602500  0.02741715    -0.77800
C163        C  0.91158499  0.24261967  0.99272254     0.83000
N164        N  0.93544761  0.25101528  0.98025080    -0.79500
C165        C  0.77089568  0.45259147  0.99732685     0.80500
N166        N  0.76190419  0.43256921  0.97624184    -0.77800
C167        C  0.75524302  0.40865890  0.99042180     0.82900
N168        N  0.75700915  0.40498297  0.02599667    -0.77800
C169        C  0.76583449  0.42465454  0.04730942     0.83000
N170        N  0.77284755  0.44834284  0.03293159    -0.79500
O171        O  0.16802464  0.28616959  0.79675190    -0.81500
C172        C  0.17867051  0.37330337  0.89219678     0.97800
O173        O  0.16164763  0.37046125  0.86798209    -0.70700
O174        O  0.18172221  0.36272815  0.80411877    -0.74200
Al175      Al  0.15643079  0.34400005  0.83208465     1.49000
C176        C  0.19548300  0.35220690  0.77990639     0.93100
O177        O  0.23280565  0.31341756  0.83452304    -0.80500
O178        O  0.17956871  0.27990408  0.89456909    -0.74000
Al179      Al  0.19924803  0.30115108  0.81753376     1.90100
O180        O  0.22335504  0.31296122  0.89150966    -0.73100
O181        O  0.14858048  0.32048621  0.90768344    -0.72900
O182        O  0.19228046  0.35368757  0.90211231    -0.78600
O183        O  0.12827842  0.32792877  0.85739470    -0.76800
O184        O  0.18050540  0.32081015  0.84827516    -1.12900
O185        O  0.14557758  0.32311452  0.79250065    -0.72100
C186        C  0.14939582  0.29946550  0.78293509     0.98600
C187        C  0.24020823  0.31386165  0.86653728     0.95000
Al188      Al  0.18550119  0.31714770  0.89487667     1.55600
O189        O  0.20127070  0.32785377  0.78143341    -0.76800
C190        C  0.12737202  0.32167332  0.88971402     0.99100
C191        C  0.19134411  0.26307747  0.87552222     0.94000
O192        O  0.20166001  0.27002948  0.84645882    -0.82100
C193        C  0.23512624  0.46241458  0.49837122     0.80500
N194        N  0.24842500  0.44382080  0.47905158    -0.77800
C195        C  0.25984995  0.42266991  0.49550660     0.82900
N196        N  0.25786913  0.42016103  0.53120362    -0.77800
C197        C  0.24467071  0.43850003  0.55078434     0.83000
N198        N  0.23307357  0.45946099  0.53418073    -0.79500
C199        C  0.04435693  0.25752815  0.49835249     0.80500
N200        N  0.05070449  0.25951056  0.53341461    -0.77800
C201        C  0.07455250  0.25051240  0.54566284     0.82900
N202        N  0.09202920  0.23968897  0.52229423    -0.77800
C203        C  0.08616660  0.23789837  0.48729571     0.83000
N204        N  0.06244740  0.24709281  0.47532030    -0.79500
O205        O  0.21061675  0.67604819  0.29533034    -0.81500
C206        C  0.12616631  0.69166609  0.39301126     0.97800
O207        O  0.12737012  0.67341619  0.37011424    -0.70700
O208        O  0.13520483  0.69251584  0.30599594    -0.74200
Al209      Al  0.15296512  0.66638072  0.33319785     1.49000
C210        C  0.14608428  0.70633880  0.28215184     0.93100
O211        O  0.18750862  0.74065380  0.33784117    -0.80500
O212        O  0.21897298  0.68270769  0.39328201    -0.74000
Al213      Al  0.19775902  0.70714785  0.31849166     1.90100
O214        O  0.19123828  0.72939275  0.39369455    -0.73100
O215        O  0.17545485  0.65613956  0.40829977    -0.72900
O216        O  0.14704423  0.70315741  0.40308047    -0.78600
O217        O  0.16797822  0.63729660  0.35735115    -0.76800
O218        O  0.17773099  0.68874921  0.34901236    -1.12900
O219        O  0.17274165  0.65481302  0.29293307    -0.72100
C220        C  0.19624734  0.65816124  0.28189930     0.98600
C221        C  0.19054987  0.74711304  0.36994920     0.95000
Al222      Al  0.18259236  0.69248760  0.39559810     1.55600
O223        O  0.17060080  0.71169210  0.28353578    -0.76800
C224        C  0.17408342  0.63543962  0.38955330     0.99100
C225        C  0.23610337  0.69483932  0.37492553     0.94000
O226        O  0.22936762  0.70662072  0.34673945    -0.82100
C227        C  0.04529367  0.74170607  0.99195892     0.80500
N228        N  0.06148916  0.75606280  0.97008278    -0.77800
C229        C  0.08382830  0.76765401  0.98322007     0.82900
N230        N  0.09009472  0.76417761  0.01782999    -0.77800
C231        C  0.07478564  0.74914346  0.03955596     0.83000
N232        N  0.05213039  0.73818285  0.02658210    -0.79500
C233        C  0.23249408  0.55128567  0.99395836     0.80500
N234        N  0.24533600  0.56899054  0.97253218    -0.77800
C235        C  0.25360962  0.59272457  0.98538072     0.82900
N236        N  0.24853271  0.59891081  0.01965780    -0.77800
C237        C  0.23518304  0.58201407  0.04124878     0.83000
N238        N  0.22736390  0.55802876  0.02841092    -0.79500
O239        O  0.82775863  0.71805761  0.79702499    -0.81500
C240        C  0.81528920  0.63294389  0.89365108     0.97800
O241        O  0.83318617  0.63479053  0.87013453    -0.70700
O242        O  0.81208346  0.64227778  0.80714836    -0.74200
Al243      Al  0.83896147  0.66040578  0.83312455     1.49000
C244        C  0.79782999  0.65325433  0.78386414     0.93100
O245        O  0.76437011  0.69325330  0.84116105    -0.80500
O246        O  0.82273959  0.72591166  0.89466311    -0.74000
Al247      Al  0.79723811  0.70449774  0.82083660     1.90100
O248        O  0.77657266  0.69720761  0.89655780    -0.73100
O249        O  0.85025565  0.68239828  0.90802019    -0.72900
O250        O  0.80357790  0.65349087  0.90443933    -0.78600
O251        O  0.86864221  0.67578752  0.85612643    -0.76800
O252        O  0.81658793  0.68471316  0.85026855    -1.12900
O253        O  0.84925689  0.68043349  0.79237128    -0.72100
C254        C  0.84549604  0.70406611  0.78242687     0.98600
C255        C  0.75841623  0.69563308  0.87355056     0.95000
Al256      Al  0.81361127  0.68924722  0.89697348     1.55600
O257        O  0.79265929  0.67769244  0.78583006    -0.76800
C258        C  0.87071102  0.68117243  0.88859338     0.99100
C259        C  0.81021212  0.74295108  0.87658943     0.94000
O260        O  0.79755327  0.73584211  0.84933561    -0.82100
C261        C  0.75858194  0.54725304  0.49919291     0.80500
N262        N  0.74645834  0.56599751  0.47882566    -0.77800
C263        C  0.73656866  0.58846007  0.49366211     0.82900
N264        N  0.73890473  0.59213430  0.52919586    -0.77800
C265        C  0.75119636  0.57380170  0.54991655     0.83000
N266        N  0.76125137  0.55151549  0.53469377    -0.79500
C267        C  0.94893986  0.74837117  0.49625677     0.80500
N268        N  0.93076015  0.75858459  0.47323227    -0.77800
C269        C  0.90658182  0.76646408  0.48507590     0.82900
N270        N  0.90044175  0.76391782  0.51978961    -0.77800
C271        C  0.91805365  0.75387420  0.54334056     0.83000
N272        N  0.94245777  0.74609578  0.53134927    -0.79500
C273        C  0.88454788  0.70365161  0.69669739    -0.01800
C274        C  0.88600301  0.73077330  0.68805868     0.06800
C275        C  0.87545987  0.74953691  0.71164427    -0.07700
C276        C  0.86307128  0.74157768  0.74332020     0.04300
C277        C  0.86091423  0.71427976  0.75160367    -0.14900
C278        C  0.87230107  0.69567558  0.72826408    -0.08300
C279        C  0.89532478  0.73944533  0.65255921     0.05200
C280        C  0.87616473  0.74738368  0.62798842    -0.09400
C281        C  0.88297752  0.75260322  0.59271518     0.00200
C282        C  0.90990520  0.75004146  0.58123013     0.00100
C283        C  0.92924374  0.74295945  0.60658313    -0.13000
C284        C  0.92215273  0.73769727  0.64195892     0.00500
C285        C  0.86133895  0.75946716  0.56922274     0.39900
C286        C  0.94261302  0.73046685  0.66699057     0.36500
C287        C  0.89396895  0.68354457  0.67248587     0.36200
C288        C  0.85290886  0.76185292  0.76666934     0.37000
N289        N  0.84386201  0.76492471  0.55062987    -0.43800
N290        N  0.95894006  0.72472377  0.68719935    -0.44300
N291        N  0.84488717  0.77815057  0.78542129    -0.41600
N292        N  0.90145653  0.66747980  0.65299184    -0.43100
H293        H  0.87063702  0.67463570  0.73381568     0.13100
H294        H  0.87641377  0.77042063  0.70486006     0.09600
H295        H  0.85548224  0.74857838  0.63621561     0.10600
H296        H  0.94994701  0.74123269  0.59879293     0.16500
C297        C  0.77698606  0.59582889  0.72482580    -0.01800
C298        C  0.77332160  0.60878527  0.69198431     0.06800
C299        C  0.77750100  0.63613355  0.68964151    -0.07700
C300        C  0.78546536  0.65076228  0.71911177     0.04300
C301        C  0.78860470  0.63812350  0.75246349    -0.14900
C302        C  0.78446759  0.61056898  0.75483112    -0.08300
C303        C  0.76613016  0.59475323  0.65880511     0.05200
C304        C  0.74115481  0.59980945  0.64378470    -0.09400
C305        C  0.73545129  0.59217268  0.60892971     0.00200
C306        C  0.75498282  0.57900334  0.58838564     0.00100
C307        C  0.77944900  0.57252275  0.60428262    -0.13000
C308        C  0.78524667  0.58057518  0.63905167     0.00500
C309        C  0.70948526  0.59844169  0.59489528     0.39900
C310        C  0.81158626  0.57594645  0.65298216     0.36500
C311        C  0.77338236  0.56755536  0.72821921     0.36200
C312        C  0.79215674  0.67831951  0.71342546     0.37000
N313        N  0.68865089  0.60355969  0.58380271    -0.43800
N314        N  0.83268113  0.57243522  0.66431036    -0.44300
N315        N  0.79775897  0.70031033  0.70877425    -0.41600
N316        N  0.77064892  0.54486226  0.73097315    -0.43100
H317        H  0.78724117  0.60053049  0.78003084     0.13100
H318        H  0.77532474  0.64599248  0.66418189     0.09600
H319        H  0.72648234  0.61087676  0.65885614     0.10600
H320        H  0.79467238  0.56255143  0.58883853     0.16500
C321        C  0.99842806  0.70386903  0.93203860    -0.01800
C322        C  0.97346026  0.70869473  0.94814256     0.06800
C323        C  0.97267560  0.72242351  0.98050726    -0.07700
C324        C  0.99594725  0.73238683  0.99589660     0.04300
C325        C  0.02055113  0.72967455  0.97806945    -0.14900
C326        C  0.02154610  0.71507976  0.94642265    -0.08300
C327        C  0.94783332  0.70027395  0.93166560     0.05200
C328        C  0.92960044  0.68545034  0.95191318    -0.09400
C329        C  0.90441659  0.67897331  0.93853541     0.00200
C330        C  0.89730836  0.68673931  0.90378436     0.00100
C331        C  0.91564176  0.70125002  0.88336652    -0.13000
C332        C  0.94041037  0.70857949  0.89721750     0.00500
C333        C  0.88635414  0.66422828  0.96095340     0.39900
C334        C  0.95704232  0.72608065  0.87642461     0.36500
C335        C  0.00097893  0.68658929  0.90172265     0.36200
C336        C  0.99383960  0.74589662  0.02952504     0.37000
N337        N  0.87178138  0.65255337  0.97894874    -0.43800
N338        N  0.97037153  0.74014494  0.85983343    -0.44300
N339        N  0.99211176  0.75645966  0.05665932    -0.41600
N340        N  0.00306969  0.67256842  0.87761172    -0.43100
H341        H  0.04052412  0.71190934  0.93337484     0.13100
H342        H  0.95372032  0.72574228  0.99356398     0.09600
H343        H  0.93493638  0.67924795  0.97854051     0.10600
H344        H  0.91012574  0.70790818  0.85699128     0.16500
C345        C  0.12560322  0.74637485  0.20215644    -0.01800
C346        C  0.10872024  0.72852635  0.18414358     0.06800
C347        C  0.10265345  0.70407157  0.20000182    -0.07700
C348        C  0.11358387  0.69695474  0.23281005     0.04300
C349        C  0.13081388  0.71466842  0.25056711    -0.14900
C350        C  0.13643051  0.73934448  0.23504327    -0.08300
C351        C  0.09935141  0.73389672  0.14739683     0.05200
C352        C  0.11841902  0.73807701  0.12079485    -0.09400
C353        C  0.11092330  0.74302556  0.08574134     0.00200
C354        C  0.08359694  0.74375057  0.07649163     0.00100
C355        C  0.06448851  0.73884579  0.10302338    -0.13000
C356        C  0.07213007  0.73394071  0.13822346     0.00500
C357        C  0.13192357  0.74619299  0.05980663     0.39900
C358        C  0.05170519  0.72936604  0.16452395     0.36500
C359        C  0.13268361  0.77174648  0.18703156     0.36200
C360        C  0.10877681  0.67041426  0.24581204     0.37000
N361        N  0.14874018  0.74875373  0.03904367    -0.43800
N362        N  0.03538156  0.72553738  0.18562556    -0.44300
N363        N  0.10506316  0.64905333  0.25594562    -0.41600
N364        N  0.13855336  0.79197501  0.17476841    -0.43100
H365        H  0.14993745  0.75288362  0.24821671     0.13100
H366        H  0.09036148  0.68994752  0.18586567     0.09600
H367        H  0.13939367  0.73715731  0.12743670     0.10600
H368        H  0.04351038  0.73914806  0.09637692     0.16500
C369        C  0.22789551  0.57988582  0.14165926    -0.01800
C370        C  0.22224501  0.60663864  0.14950488     0.06800
C371        C  0.21959078  0.62485252  0.12168767    -0.07700
C372        C  0.22277416  0.61698246  0.08638401     0.04300
C373        C  0.22921720  0.59031149  0.07826611    -0.14900
C374        C  0.23131384  0.57190398  0.10620724    -0.08300
C375        C  0.21750290  0.61619178  0.18623579     0.05200
C376        C  0.23634938  0.63274989  0.20236156    -0.09400
C377        C  0.23077828  0.64550352  0.23464679     0.00200
C378        C  0.20566322  0.64192289  0.25121586     0.00100
C379        C  0.18752337  0.62406120  0.23570612    -0.13000
C380        C  0.19312040  0.61149737  0.20350949     0.00500
C381        C  0.25093932  0.66265663  0.24928706     0.39900
C382        C  0.17276541  0.59529636  0.18747754     0.36500
C383        C  0.23067674  0.56050315  0.16962332     0.36200
C384        C  0.21819502  0.63657023  0.05902958     0.37000
N385        N  0.26713603  0.67637405  0.26100374    -0.43800
N386        N  0.15640242  0.58241495  0.17456617    -0.44300
N387        N  0.21440561  0.65226198  0.03716477    -0.41600
N388        N  0.23287036  0.54502687  0.19214012    -0.43100
H389        H  0.23624249  0.55143073  0.10042921     0.13100
H390        H  0.21455669  0.64529398  0.12762310     0.09600
H391        H  0.25515895  0.63638653  0.18904264     0.10600
H392        H  0.16820111  0.62076107  0.24779473     0.16500
C393        C  0.05404697  0.68796622  0.42294029    -0.01800
C394        C  0.04982357  0.71354398  0.43689809     0.06800
C395        C  0.07061093  0.73202047  0.43590227    -0.07700
C396        C  0.09536300  0.72549079  0.42130543     0.04300
C397        C  0.10002700  0.69959153  0.40821722    -0.14900
C398        C  0.07902264  0.68115618  0.40893488    -0.08300
C399        C  0.02369499  0.72194591  0.45163560     0.05200
C400        C  0.01419046  0.71027709  0.48301637    -0.09400
C401        C  0.99011142  0.71855027  0.49838718     0.00200
C402        C  0.97512380  0.73912813  0.48230535     0.00100
C403        C  0.98478273  0.75057579  0.45070297    -0.13000
C404        C  0.00868401  0.74215515  0.43534311     0.00500
C405        C  0.98095635  0.70478162  0.52974247     0.39900
C406        C  0.01711795  0.75409671  0.40231210     0.36500
C407        C  0.03276714  0.66879260  0.42143282     0.36200
C408        C  0.11486371  0.74637831  0.41814384     0.37000
N409        N  0.97365679  0.69362543  0.55480584    -0.43800
N410        N  0.02391822  0.76356287  0.37580572    -0.44300
N411        N  0.13020682  0.76335019  0.41533549    -0.41600
N412        N  0.01565684  0.65348776  0.42000569    -0.43100
H413        H  0.08206359  0.66138312  0.39843092     0.13100
H414        H  0.06726561  0.75187674  0.44600177     0.09600
H415        H  0.02567744  0.69465682  0.49555419     0.10600
H416        H  0.97360475  0.76622838  0.43776213     0.16500
C417        C  0.19836562  0.58364688  0.45542530    -0.01800
C418        C  0.19601710  0.55994634  0.43600086     0.06800
C419        C  0.18570921  0.56082470  0.40156214    -0.07700
C420        C  0.17809851  0.58490941  0.38598777     0.04300
C421        C  0.18034426  0.60895305  0.40537603    -0.14900
C422        C  0.19033945  0.60776271  0.44025181    -0.08300
C423        C  0.20541519  0.53419157  0.45050430     0.05200
C424        C  0.19014455  0.52106866  0.47628457    -0.09400
C425        C  0.19885812  0.49707884  0.49117614     0.00200
C426        C  0.22359842  0.48613118  0.48074811     0.00100
C427        C  0.23830825  0.49884244  0.45392397    -0.13000
C428        C  0.22941271  0.52264513  0.43879052     0.00500
C429        C  0.18144399  0.48351341  0.51574160     0.39900
C430        C  0.24555868  0.53531777  0.41195106     0.36500
C431        C  0.21022283  0.58382953  0.49028149     0.36200
C432        C  0.16881388  0.58408277  0.34976275     0.37000
N433        N  0.16724907  0.47256890  0.53505162    -0.43800
N434        N  0.25840136  0.54554262  0.39038758    -0.44300
N435        N  0.16158853  0.58338708  0.32064145    -0.41600
N436        N  0.21994819  0.58397351  0.51808163    -0.43100
H437        H  0.19268182  0.62582148  0.45548395     0.13100
H438        H  0.18412961  0.54258578  0.38650042     0.09600
H439        H  0.17130849  0.52954993  0.48462935     0.10600
H440        H  0.25721166  0.49058177  0.44547090     0.16500
C441        C  0.11890810  0.25692579  0.62664387    -0.01800
C442        C  0.10048976  0.26050998  0.65450462     0.06800
C443        C  0.07318274  0.26028513  0.64670893    -0.07700
C444        C  0.06406083  0.25681510  0.61180905     0.04300
C445        C  0.08252619  0.25341887  0.58368653    -0.14900
C446        C  0.10987417  0.25316995  0.59191428    -0.08300
C447        C  0.10947574  0.26804546  0.69075879     0.05200
C448        C  0.10315264  0.29344387  0.70300427    -0.09400
C449        C  0.11450799  0.30353133  0.73401403     0.00200
C450        C  0.13307784  0.28806160  0.75355308     0.00100
C451        C  0.13769949  0.26175963  0.74262434    -0.13000
C452        C  0.12593304  0.25164597  0.71171932     0.00500
C453        C  0.10729492  0.33025822  0.74381066     0.39900
C454        C  0.13125784  0.22452489  0.70180628     0.36500
C455        C  0.14724829  0.25866271  0.63261691     0.36200
C456        C  0.03568921  0.25679192  0.60598137     0.37000
N457        N  0.10140179  0.35169635  0.75139530    -0.43800
N458        N  0.13551643  0.20276654  0.69393523    -0.44300
N459        N  0.01292072  0.25686135  0.60144836    -0.41600
N460        N  0.16993017  0.26007847  0.63749810    -0.43100
H461        H  0.12449552  0.25093867  0.57093023     0.13100
H462        H  0.05893353  0.26336966  0.66796742     0.09600
H463        H  0.09013848  0.30597699  0.68729491     0.10600
H464        H  0.15117924  0.24924488  0.75759373     0.16500
C465        C  0.21364966  0.41147444  0.72235586    -0.01800
C466        C  0.21886143  0.39937215  0.68941585     0.06800
C467        C  0.21622888  0.37186090  0.68618542    -0.07700
C468        C  0.20852420  0.35623052  0.71508685     0.04300
C469        C  0.20393650  0.36811698  0.74860933    -0.14900
C470        C  0.20631928  0.39583007  0.75164914    -0.08300
C471        C  0.22670612  0.41458332  0.65734910     0.05200
C472        C  0.25263532  0.41153674  0.64420225    -0.09400
C473        C  0.25954453  0.42096778  0.61046150     0.00200
C474        C  0.24017591  0.43356907  0.58912174     0.00100
C475        C  0.21481662  0.43842981  0.60350501    -0.13000
C476        C  0.20789849  0.42885462  0.63722572     0.00500
C477        C  0.28652103  0.41710360  0.59821406     0.39900
C478        C  0.18085777  0.43212115  0.64945521     0.36500
C479        C  0.21581757  0.43980559  0.72666944     0.36200
C480        C  0.20401920  0.32833759  0.70874034     0.37000
N481        N  0.30815369  0.41404402  0.58845118    -0.43800
N482        N  0.15916674  0.43470405  0.65922059    -0.44300
N483        N  0.20022902  0.30605813  0.70347553    -0.41600
N484        N  0.21745806  0.46253828  0.73009570    -0.43100
H485        H  0.20249929  0.40530572  0.77695336     0.13100
H486        H  0.21968746  0.36261773  0.66061165     0.09600
H487        H  0.26720226  0.40076075  0.65979248     0.10600
H488        H  0.19977518  0.44808683  0.58747269     0.16500
C489        C  0.20636971  0.42536252  0.95475534    -0.01800
C490        C  0.19664277  0.44918667  0.94024671     0.06800
C491        C  0.17952388  0.44814576  0.91097866    -0.07700
C492        C  0.17263315  0.42382194  0.89537703     0.04300
C493        C  0.18307564  0.39975601  0.90918426    -0.14900
C494        C  0.19916849  0.40104419  0.93968038    -0.08300
C495        C  0.20524126  0.47539551  0.95411681     0.05200
C496        C  0.22636739  0.48847294  0.93732028    -0.09400
C497        C  0.23565332  0.51297098  0.94971127     0.00200
C498        C  0.22359206  0.52505087  0.97972902     0.00100
C499        C  0.20236063  0.51168189  0.99650623    -0.13000
C500        C  0.19314011  0.48715926  0.98392067     0.00500
C501        C  0.25812383  0.52459955  0.93151395     0.39900
C502        C  0.17106545  0.47449954  0.00171720     0.36500
C503        C  0.22462521  0.42543805  0.98427279     0.36200
C504        C  0.15518062  0.42449527  0.86501884     0.37000
N505        N  0.27612232  0.53383390  0.91679884    -0.43800
N506        N  0.15332968  0.46434507  0.01589372    -0.44300
N507        N  0.14108782  0.42518475  0.84078985    -0.41600
N508        N  0.23943173  0.42544840  0.00773926    -0.43100
H509        H  0.20654871  0.38295418  0.95165081     0.13100
H510        H  0.17190779  0.46649340  0.89988225     0.09600
H511        H  0.23584328  0.47930258  0.91454135     0.10600
H512        H  0.19266241  0.52051003  0.01933272     0.16500
C513        C  0.81746442  0.55864753  0.91046816    -0.01800
C514        C  0.79579894  0.55478593  0.93360939     0.06800
C515        C  0.78029573  0.57656693  0.94370002    -0.07700
C516        C  0.78605781  0.60211649  0.93118198     0.04300
C517        C  0.80811749  0.60630420  0.90821300    -0.14900
C518        C  0.82343668  0.58415970  0.89800659    -0.08300
C519        C  0.78972400  0.52841834  0.94912148     0.05200
C520        C  0.79712088  0.52342824  0.98425495    -0.09400
C521        C  0.79179716  0.49895406  0.00040505     0.00200
C522        C  0.77809276  0.47886193  0.98137753     0.00100
C523        C  0.77090672  0.48409818  0.94586541    -0.13000
C524        C  0.77673343  0.50848131  0.92969333     0.00500
C525        C  0.80146030  0.49521413  0.03611192     0.39900
C526        C  0.76906036  0.51267973  0.89321483     0.36500
C527        C  0.83415478  0.53676221  0.89978659     0.36200
C528        C  0.76863497  0.62330621  0.94228145     0.37000
N529        N  0.80942190  0.49248937  0.06467864    -0.43800
N530        N  0.76302028  0.51597210  0.86392248    -0.44300
N531        N  0.75449732  0.64009331  0.95136330    -0.41600
N532        N  0.84749644  0.51917766  0.89127578    -0.43100
H533        H  0.84030707  0.58669623  0.88035317     0.13100
H534        H  0.76358855  0.57354433  0.96153320     0.09600
H535        H  0.80742554  0.53872427  0.99902648     0.10600
H536        H  0.76053335  0.46919673  0.93053334     0.16500
C537        C  0.07776125  0.29491278  0.95694383    -0.01800
C538        C  0.05313368  0.29910436  0.93992796     0.06800
C539        C  0.05281916  0.31206200  0.90695390    -0.07700
C540        C  0.07647945  0.31996958  0.89025211     0.04300
C541        C  0.10135775  0.31511059  0.90681506    -0.14900
C542        C  0.10145158  0.30288058  0.94042616    -0.08300
C543        C  0.02758527  0.28971601  0.95577795     0.05200
C544        C  0.02001860  0.29860669  0.98958162    -0.09400
C545        C  0.99649024  0.28973137  0.00579268     0.00200
C546        C  0.97951425  0.27182594  0.98768350     0.00100
C547        C  0.98721159  0.26314618  0.95365228    -0.13000
C548        C  0.01086778  0.27179928  0.93776670     0.00500
C549        C  0.99047596  0.29974483  0.04076090     0.39900
C550        C  0.01777456  0.26149092  0.90321643     0.36500
C551        C  0.07935224  0.28174706  0.99093250     0.36200
C552        C  0.07429001  0.33311190  0.85629546     0.37000
N553        N  0.98586752  0.30775561  0.06886698    -0.43800
N554        N  0.02321944  0.25329079  0.87547876    -0.44300
N555        N  0.07238693  0.34362026  0.82908987    -0.41600
N556        N  0.08054177  0.27134476  0.01828038    -0.43100
H557        H  0.12016614  0.29895538  0.95369215     0.13100
H558        H  0.03391936  0.31586298  0.89406005     0.09600
H559        H  0.03262830  0.31261992  0.00342454     0.10600
H560        H  0.97481308  0.24928664  0.93923984     0.16500
C561        C  0.92735139  0.26593270  0.15012813    -0.01800
C562        C  0.90064450  0.27141060  0.15921983     0.06800
C563        C  0.88172578  0.27356726  0.13209493    -0.07700
C564        C  0.88858699  0.26939108  0.09660892     0.04300
C565        C  0.91513570  0.26298082  0.08734135    -0.14900
C566        C  0.93438638  0.26183026  0.11439745    -0.08300
C567        C  0.89143150  0.27541533  0.19646793     0.05200
C568        C  0.90100090  0.29702518  0.21603808    -0.09400
C569        C  0.88894153  0.30443244  0.24818964     0.00200
C570        C  0.86650283  0.29024706  0.26100442     0.00100
C571        C  0.85826664  0.26752243  0.24252973    -0.13000
C572        C  0.87060549  0.25994746  0.21080455     0.00500
C573        C  0.89898530  0.32769448  0.26596314     0.39900
C574        C  0.86110082  0.23653639  0.19284906     0.36500
C575        C  0.94765735  0.26372194  0.17698820     0.36200
C576        C  0.86798515  0.27280050  0.07031892     0.37000
N577        N  0.90709600  0.34629672  0.28024090    -0.43800
N578        N  0.85356531  0.21779421  0.17835563    -0.44300
N579        N  0.85142419  0.27554908  0.04934238    -0.41600
N580        N  0.96396343  0.26199565  0.19850247    -0.43100
H581        H  0.95486702  0.25718611  0.10772382     0.13100
H582        H  0.86132713  0.27861898  0.13877144     0.09600
H583        H  0.91700719  0.30900855  0.20523262     0.10600
H584        H  0.84152809  0.25604675  0.25229565     0.16500
C585        C  0.78894128  0.40320551  0.22074630    -0.01800
C586        C  0.77544903  0.39048334  0.19273534     0.06800
C587        C  0.76712434  0.36413325  0.19729949    -0.07700
C588        C  0.77277570  0.35013128  0.22848801     0.04300
C589        C  0.78729861  0.36247602  0.25599252    -0.14900
C590        C  0.79485263  0.38915033  0.25191766    -0.08300
C591        C  0.77208262  0.40308243  0.15720546     0.05200
C592        C  0.79486863  0.41099358  0.13823763    -0.09400
C593        C  0.79308994  0.41941155  0.10285983     0.00200
C594        C  0.76818445  0.41972075  0.08575726     0.00100
C595        C  0.74530503  0.41263374  0.10491668    -0.13000
C596        C  0.74701017  0.40461205  0.14045591     0.00500
C597        C  0.81728765  0.42573825  0.08394442     0.39900
C598        C  0.72281056  0.39781499  0.15908116     0.36500
C599        C  0.79711495  0.43056697  0.21795071     0.36200
C600        C  0.76525122  0.32251776  0.23013988     0.37000
N601        N  0.83672151  0.43071751  0.06881252    -0.43800
N602        N  0.70341341  0.39236683  0.17400629    -0.44300
N603        N  0.75927009  0.30037713  0.23130990    -0.41600
N604        N  0.80366978  0.45249433  0.21561831    -0.43100
H605        H  0.80587330  0.39889099  0.27287606     0.13100
H606        H  0.75718655  0.35403362  0.17568869     0.09600
H607        H  0.81427369  0.40944763  0.15060247     0.10600
H608        H  0.72609604  0.41293555  0.09184934     0.16500
C609        C  0.80992336  0.44605215  0.40649402    -0.01800
C610        C  0.79882350  0.44846808  0.44069396     0.06800
C611        C  0.79501826  0.42558077  0.46121493    -0.07700
C612        C  0.80144263  0.40041879  0.44797029     0.04300
C613        C  0.81171378  0.39771335  0.41300443    -0.14900
C614        C  0.81613925  0.42092128  0.39294572    -0.08300
C615        C  0.78970936  0.47445722  0.45491435     0.05200
C616        C  0.76821512  0.48726308  0.43853751    -0.09400
C617        C  0.75782573  0.51094905  0.45217964     0.00200
C618        C  0.76911441  0.52242271  0.48298049     0.00100
C619        C  0.79081861  0.50956554  0.49913263    -0.13000
C620        C  0.80113992  0.48587385  0.48538662     0.00500
C621        C  0.73479379  0.52214958  0.43487362     0.39900
C622        C  0.82376172  0.47385004  0.50262469     0.36500
C623        C  0.81551180  0.46916223  0.38507387     0.36200
C624        C  0.79667595  0.37794754  0.47092417     0.37000
N625        N  0.71630891  0.53103635  0.42096538    -0.43800
N626        N  0.84193065  0.46423434  0.51639351    -0.44300
N627        N  0.79285822  0.36004178  0.48950494    -0.41600
N628        N  0.82010937  0.48771668  0.36801979    -0.43100
H629        H  0.82438865  0.41952359  0.36640080     0.13100
H630        H  0.78648220  0.42737340  0.48757750     0.09600
H631        H  0.75911167  0.47833598  0.41537865     0.10600
H632        H  0.79992212  0.51811499  0.52252907     0.16500
C633        C  0.98099286  0.29828136  0.48966097    -0.01800
C634        C  0.96757391  0.28518233  0.46193104     0.06800
C635        C  0.97953959  0.26306737  0.44605727    -0.07700
C636        C  0.00443207  0.25383449  0.45730090     0.04300
C637        C  0.01791545  0.26672813  0.48536011    -0.14900
C638        C  0.00576568  0.28882926  0.50140058    -0.08300
C639        C  0.94111432  0.29411588  0.44873636     0.05200
C640        C  0.93906767  0.31833000  0.43057711    -0.09400
C641        C  0.91490499  0.32647936  0.41541628     0.00200
C642        C  0.89198204  0.31021549  0.41844628     0.00100
C643        C  0.89408525  0.28624142  0.43749217    -0.13000
C644        C  0.91828169  0.27809845  0.45235433     0.00500
C645        C  0.91443486  0.35161474  0.39702593     0.39900
C646        C  0.91920643  0.25316405  0.47122476     0.36500
C647        C  0.96961824  0.32130203  0.50660307     0.36200
C648        C  0.01513424  0.23056694  0.44016767     0.37000
N649        N  0.91408540  0.37174300  0.38223053    -0.43800
N650        N  0.91995218  0.23315924  0.48628502    -0.44300
N651        N  0.02368670  0.21195153  0.42632654    -0.41600
N652        N  0.96053928  0.33983858  0.52003274    -0.43100
H653        H  0.01582095  0.29901444  0.52284231     0.13100
H654        H  0.96932916  0.25297090  0.42465460     0.09600
H655        H  0.95660078  0.33068077  0.42764153     0.10600
H656        H  0.87688220  0.27342341  0.44025735     0.16500
C657        C  0.81367439  0.19795501  0.43281563    -0.01800
C658        C  0.79372829  0.18096947  0.41946438     0.06800
C659        C  0.77950591  0.18877524  0.38913567    -0.07700
C660        C  0.78383069  0.21366550  0.37338764     0.04300
C661        C  0.80266658  0.23122323  0.38812859    -0.14900
C662        C  0.81781356  0.22287883  0.41730395    -0.08300
C663        C  0.78474768  0.15717199  0.43977703     0.05200
C664        C  0.77462388  0.16104390  0.47400156    -0.09400
C665        C  0.76469254  0.13993192  0.49413100     0.00200
C666        C  0.76467922  0.11377714  0.48005788     0.00100
C667        C  0.77471138  0.10999779  0.44550236    -0.13000
C668        C  0.78467760  0.13136903  0.42540740     0.00500
C669        C  0.75386443  0.14633850  0.52863138     0.39900
C670        C  0.79523289  0.12629967  0.39044015     0.36500
C671        C  0.82968001  0.19052407  0.46301549     0.36200
C672        C  0.76698149  0.22164346  0.34428082     0.37000
N673        N  0.74527819  0.15162889  0.55624966    -0.43800
N674        N  0.80372098  0.12227319  0.36239741    -0.44300
N675        N  0.75336239  0.22804870  0.32107377    -0.41600
N676        N  0.84254991  0.18462509  0.48720118    -0.43100
H677        H  0.83238265  0.23623845  0.42867976     0.13100
H678        H  0.76388516  0.17606147  0.37901874     0.09600
H679        H  0.77404713  0.18093451  0.48488660     0.10600
H680        H  0.77507528  0.09029251  0.43423092     0.16500
C681        C  0.68810925  0.28510284  0.39822742    -0.01800
C682        C  0.67650965  0.30607691  0.41761360     0.06800
C683        C  0.69036880  0.33013589  0.42067325    -0.07700
C684        C  0.71596435  0.33305145  0.40633771     0.04300
C685        C  0.72804055  0.31162282  0.38837640    -0.14900
C686        C  0.71346439  0.28818404  0.38336635    -0.08300
C687        C  0.65221669  0.30181540  0.43946454     0.05200
C688        C  0.65485650  0.30277597  0.47636894    -0.09400
C689        C  0.63401585  0.29518695  0.49878713     0.00200
C690        C  0.60962493  0.28595928  0.48419530     0.00100
C691        C  0.60649986  0.28689141  0.44704044    -0.13000
C692        C  0.62744562  0.29483323  0.42475187     0.00500
C693        C  0.63895739  0.29677403  0.53648030     0.39900
C694        C  0.62318558  0.29541591  0.38689886     0.36500
C695        C  0.67548649  0.25944300  0.39590697     0.36200
C696        C  0.72948665  0.35808754  0.41073583     0.37000
N697        N  0.64321169  0.29813557  0.56659308    -0.43800
N698        N  0.61977662  0.29587351  0.35654956    -0.44300
N699        N  0.74033306  0.37815140  0.41416307    -0.41600
N700        N  0.66536297  0.23888596  0.39414412    -0.43100
H701        H  0.72262372  0.27151628  0.36990761     0.13100
H702        H  0.68157622  0.34629822  0.43557625     0.09600
H703        H  0.67378947  0.30857269  0.48778951     0.10600
H704        H  0.58791693  0.28067643  0.43511164     0.16500
C705        C  0.86459410  0.19524566  0.94759181    -0.01800
C706        C  0.84757253  0.21287806  0.92918326     0.06800
C707        C  0.85374124  0.24006561  0.92897029    -0.07700
C708        C  0.87559230  0.24984038  0.94784816     0.04300
C709        C  0.89124217  0.23241353  0.96827318    -0.14900
C710        C  0.88592154  0.20518336  0.96742820    -0.08300
C711        C  0.82158912  0.20396930  0.91418432     0.05200
C712        C  0.80386813  0.19044628  0.93662749    -0.09400
C713        C  0.77802546  0.18421514  0.92574925     0.00200
C714        C  0.76891206  0.19222913  0.89179827     0.00100
C715        C  0.78713350  0.20481479  0.86871564    -0.13000
C716        C  0.81322416  0.21058781  0.87954827     0.00500
C717        C  0.76134465  0.17047323  0.95100422     0.39900
C718        C  0.83094615  0.22345411  0.85468654     0.36500
C719        C  0.86044438  0.16693046  0.94666086     0.36200
C720        C  0.88097707  0.27795710  0.94716254     0.37000
N721        N  0.74827901  0.15949389  0.97163419    -0.43800
N722        N  0.84514613  0.23379547  0.83479408    -0.44300
N723        N  0.88546958  0.30045376  0.94653453    -0.41600
N724        N  0.85707248  0.14424607  0.94581048    -0.43100
H725        H  0.89825256  0.19167099  0.98278293     0.13100
H726        H  0.84076055  0.25392636  0.91526014     0.09600
H727        H  0.80990934  0.18555153  0.96334616     0.10600
H728        H  0.78087268  0.21085086  0.84250562     0.16500
C729        C  0.71694669  0.37043741  0.92061140    -0.01800
C730        C  0.72377385  0.34410386  0.92918522     0.06800
C731        C  0.74283413  0.33929172  0.95546655    -0.07700
C732        C  0.75429747  0.36018546  0.97431248     0.04300
C733        C  0.74608876  0.38654372  0.96769071    -0.14900
C734        C  0.72797397  0.39146706  0.94005640    -0.08300
C735        C  0.71151360  0.32088642  0.91158996     0.05200
C736        C  0.72305821  0.31104937  0.88042840    -0.09400
C737        C  0.71583506  0.28611410  0.86722244     0.00200
C738        C  0.69693477  0.27049498  0.88572803     0.00100
C739        C  0.68428355  0.28111764  0.91572465    -0.13000
C740        C  0.69122398  0.30623473  0.92849960     0.00500
C741        C  0.72990816  0.27612592  0.83658204     0.39900
C742        C  0.67796351  0.31624602  0.95972945     0.36500
C743        C  0.69863160  0.37621561  0.89221444     0.36200
C744        C  0.77531011  0.35410981  0.99914159     0.37000
N745        N  0.74125567  0.26816658  0.81206292    -0.43800
N746        N  0.66720311  0.32434879  0.98462414    -0.44300
N747        N  0.79237075  0.34929649  0.01870051    -0.41600
N748        N  0.68412215  0.38084170  0.86922216    -0.43100
H749        H  0.72193134  0.41165405  0.93425048     0.13100
H750        H  0.74880052  0.31905735  0.96120699     0.09600
H751        H  0.73878297  0.32223848  0.86752862     0.10600
H752        H  0.66958706  0.26939104  0.92987462     0.16500
C753        C  0.72608886  0.13684666  0.70110179    -0.01800
C754        C  0.72163880  0.10927058  0.69796785     0.06800
C755        C  0.71048447  0.09547953  0.72679847    -0.07700
C756        C  0.70297657  0.10886177  0.75785141     0.04300
C757        C  0.70736692  0.13641774  0.76080208    -0.14900
C758        C  0.71939063  0.14998790  0.73250203    -0.08300
C759        C  0.72791583  0.09501476  0.66436764     0.05200
C760        C  0.75376673  0.09681184  0.65038706    -0.09400
C761        C  0.75940143  0.08822058  0.61593039     0.00200
C762        C  0.73914813  0.07670223  0.59516805     0.00100
C763        C  0.71394192  0.07257851  0.61030197    -0.13000
C764        C  0.70808621  0.08187275  0.64449625     0.00500
C765        C  0.78594433  0.09213244  0.60212142     0.39900
C766        C  0.68111945  0.07946642  0.65740165     0.36500
C767        C  0.73602485  0.15245445  0.67173900     0.36200
C768        C  0.69119909  0.09378840  0.78638651     0.37000
N769        N  0.80717783  0.09535891  0.59098481    -0.43800
N770        N  0.65951218  0.07751320  0.66776320    -0.44300
N771        N  0.68181612  0.08147089  0.80910384    -0.41600
N772        N  0.74391098  0.16492509  0.64814894    -0.43100
H773        H  0.72236724  0.17125096  0.73425296     0.13100
H774        H  0.70729679  0.07427009  0.72483136     0.09600
H775        H  0.76928683  0.10624953  0.66582376     0.10600
H776        H  0.69825212  0.06380462  0.59447399     0.16500
C777        C  0.59738162  0.20660640  0.72082381    -0.01800
C778        C  0.60392426  0.23147467  0.70606108     0.06800
C779        C  0.62137636  0.24830328  0.72423857    -0.07700
C780        C  0.63427270  0.23969959  0.75498143     0.04300
C781        C  0.62952990  0.21388429  0.76807989    -0.14900
C782        C  0.61009234  0.19805753  0.75183527    -0.08300
C783        C  0.59604771  0.23859803  0.66943694     0.05200
C784        C  0.56932220  0.24394172  0.66144493    -0.09400
C785        C  0.56157949  0.24997222  0.62659069     0.00200
C786        C  0.58080622  0.25027967  0.59914150     0.00100
C787        C  0.60752763  0.24514391  0.60749246    -0.13000
C788        C  0.61526467  0.23946925  0.64216070     0.00500
C789        C  0.53417407  0.25700376  0.62011094     0.39900
C790        C  0.64305068  0.23412461  0.64895108     0.36500
C791        C  0.57930380  0.18877438  0.70313625     0.36200
C792        C  0.65264816  0.25752944  0.77214950     0.37000
N793        N  0.51224343  0.26284692  0.61499127    -0.43800
N794        N  0.66531942  0.22999498  0.65443245    -0.44300
N795        N  0.66730379  0.27188615  0.78589726    -0.41600
N796        N  0.56478414  0.17455677  0.68888460    -0.43100
H797        H  0.60620851  0.17826263  0.76188962     0.13100
H798        H  0.62604641  0.26764138  0.71321692     0.09600
H799        H  0.55459279  0.24361760  0.68251836     0.10600
H800        H  0.62250415  0.24521637  0.58671994     0.16500
C801        C  0.63709683  0.69736900  0.94831755    -0.01800
C802        C  0.65239047  0.71514747  0.92775060     0.06800
C803        C  0.64435665  0.74171219  0.92495245    -0.07700
C804        C  0.62247668  0.75107994  0.94429681     0.04300
C805        C  0.60852303  0.73371177  0.96703016    -0.14900
C806        C  0.61558721  0.70684472  0.96824585    -0.08300
C807        C  0.67873093  0.70746944  0.91322407     0.05200
C808        C  0.68325717  0.70812180  0.87649108    -0.09400
C809        C  0.70872418  0.70328997  0.86246505     0.00200
C810        C  0.73026085  0.69783817  0.88560667     0.00100
C811        C  0.72527956  0.69675022  0.92234704    -0.13000
C812        C  0.70000873  0.70160862  0.93619984     0.00500
C813        C  0.71219439  0.70529081  0.82452201     0.39900
C814        C  0.69678311  0.70191508  0.97431947     0.36500
C815        C  0.64362140  0.66951556  0.95001075     0.36200
C816        C  0.61592135  0.77892235  0.94240916     0.37000
N817        N  0.71493133  0.70695117  0.79409810    -0.43800
N818        N  0.69417167  0.70214791  0.00483250    -0.44300
N819        N  0.61067746  0.80123995  0.94094762    -0.41600
N820        N  0.64889190  0.64719745  0.95121823    -0.43100
H821        H  0.60464852  0.69340231  0.98539331     0.13100
H822        H  0.65606808  0.75544068  0.90917419     0.09600
H823        H  0.66695259  0.71295585  0.85882422     0.10600
H824        H  0.74140247  0.69294370  0.94070935     0.16500
C825        C  0.71493719  0.07841017  0.95478730    -0.01800
C826        C  0.70238483  0.05474068  0.94408676     0.06800
C827        C  0.68133868  0.05608226  0.91975247    -0.07700
C828        C  0.67291663  0.08048309  0.90578241     0.04300
C829        C  0.68578969  0.10421451  0.91602319    -0.14900
C830        C  0.70654087  0.10278895  0.94085415    -0.08300
C831        C  0.71024508  0.02856052  0.95911690     0.05200
C832        C  0.70632412  0.02388894  0.99535647    -0.09400
C833        C  0.71330058  0.99963337  0.01093642     0.00200
C834        C  0.72439280  0.97896627  0.98986078     0.00100
C835        C  0.72841168  0.98396962  0.95339446    -0.13000
C836        C  0.72148695  0.00839812  0.93804647     0.00500
C837        C  0.70880844  0.99711919  0.04866345     0.39900
C838        C  0.72666723  0.01258047  0.90075987     0.36500
C839        C  0.73701609  0.07805785  0.97923117     0.36200
C840        C  0.65035820  0.08063437  0.88213432     0.37000
N841        N  0.70511457  0.99537047  0.07890487    -0.43800
N842        N  0.73085762  0.01601301  0.87089675    -0.44300
N843        N  0.63225988  0.08074966  0.86320256    -0.41600
N844        N  0.75472341  0.07768933  0.99879792    -0.43100
H845        H  0.71670624  0.12074449  0.94875813     0.13100
H846        H  0.67124701  0.03800174  0.91200055     0.09600
H847        H  0.69767227  0.03939974  0.01162803     0.10600
H848        H  0.73693676  0.96875919  0.93656741     0.16500
C849        C  0.76094761  0.83943773  0.96285726    -0.01800
C850        C  0.78202835  0.84319843  0.93866440     0.06800
C851        C  0.79092342  0.86907227  0.93145291    -0.07700
C852        C  0.77974579  0.89099385  0.94914403     0.04300
C853        C  0.75925384  0.88703133  0.97439582    -0.14900
C854        C  0.74997118  0.86113905  0.98050634    -0.08300
C855        C  0.79450251  0.82005137  0.92079354     0.05200
C856        C  0.78901322  0.81544399  0.88494875    -0.09400
C857        C  0.79561274  0.79119843  0.86902460     0.00200
C858        C  0.80807762  0.77090590  0.88927583     0.00100
C859        C  0.81559275  0.77666270  0.92437320    -0.13000
C860        C  0.80886266  0.80087491  0.94017211     0.00500
C861        C  0.78830697  0.78759118  0.83231303     0.39900
C862        C  0.81573854  0.80514815  0.97689813     0.36500
C863        C  0.75003106  0.81343072  0.96981851     0.36200
C864        C  0.79055648  0.91700093  0.94222607     0.37000
N865        N  0.78233323  0.78478824  0.80291949    -0.43800
N866        N  0.82112603  0.80857964  0.00636606    -0.44300
N867        N  0.79928403  0.93783729  0.93668824    -0.41600
N868        N  0.74130058  0.79260190  0.97538806    -0.43100
H869        H  0.73399496  0.85775604  0.99929892     0.13100
H870        H  0.80696915  0.87205715  0.91259707     0.09600
H871        H  0.77821003  0.83028960  0.86988500     0.10600
H872        H  0.82541918  0.76167785  0.94032725     0.16500
C873        C  0.80442229  0.79173704  0.37615353    -0.01800
C874        C  0.81394916  0.80006103  0.40940627     0.06800
C875        C  0.79724862  0.81455625  0.43197381    -0.07700
C876        C  0.77071625  0.81941422  0.42285348     0.04300
C877        C  0.76071088  0.81013254  0.39009637    -0.14900
C878        C  0.77809564  0.79717340  0.36652971    -0.08300
C879        C  0.83948501  0.79030877  0.42382037     0.05200
C880        C  0.86125379  0.80759950  0.42680707    -0.09400
C881        C  0.88426707  0.79971366  0.44505202     0.00200
C882        C  0.88544400  0.77425087  0.46040229     0.00100
C883        C  0.86401552  0.75678898  0.45641865    -0.13000
C884        C  0.84110839  0.76460279  0.43838477     0.00500
C885        C  0.90557667  0.81853357  0.44986017     0.39900
C886        C  0.81878591  0.74658778  0.43727084     0.36500
C887        C  0.82082322  0.77628234  0.35245453     0.36200
C888        C  0.75418076  0.83327881  0.44811616     0.37000
N889        N  0.92263497  0.83362380  0.45391664    -0.43800
N890        N  0.80081615  0.73226515  0.43649146    -0.44300
N891        N  0.74109471  0.84423821  0.46870011    -0.41600
N892        N  0.83386692  0.76374763  0.33350422    -0.43100
H893        H  0.77068037  0.78979837  0.34141783     0.13100
H894        H  0.80457016  0.82077316  0.45770460     0.09600
H895        H  0.85982931  0.82752424  0.41611379     0.10600
H896        H  0.86475205  0.73736672  0.46882575     0.16500
C897        C  0.68872069  0.68660359  0.38805918    -0.01800
C898        C  0.69624931  0.68168329  0.42354497     0.06800
C899        C  0.69850529  0.70314371  0.44697216    -0.07700
C900        C  0.69322628  0.72906708  0.43591596     0.04300
C901        C  0.68567390  0.73410954  0.40047002    -0.14900
C902        C  0.68378347  0.71272752  0.37673490    -0.08300
C903        C  0.70312737  0.65476319  0.43715942     0.05200
C904        C  0.72491385  0.64106559  0.42262851    -0.09400
C905        C  0.73517465  0.61832746  0.43930107     0.00200
C906        C  0.72394854  0.60938354  0.47163321     0.00100
C907        C  0.70117499  0.62215184  0.48482294    -0.13000
C908        C  0.69050169  0.64434247  0.46762800     0.00500
C909        C  0.75826408  0.60569821  0.42395991     0.39900
C910        C  0.66672031  0.65637683  0.48193622     0.36500
C911        C  0.68546604  0.66520176  0.36309337     0.36200
C912        C  0.69754341  0.75026362  0.46096089     0.37000
N913        N  0.77670008  0.59547492  0.41161667    -0.43800
N914        N  0.64760229  0.66605047  0.49316660    -0.44300
N915        N  0.70116185  0.76721687  0.48101460    -0.41600
N916        N  0.68276368  0.64804402  0.34308888    -0.43100
H917        H  0.67844572  0.71644935  0.34932517     0.13100
H918        H  0.70499681  0.69964381  0.47402552     0.09600
H919        H  0.73476642  0.64890524  0.39921142     0.10600
H920        H  0.69190871  0.61500555  0.50903938     0.16500
C921        C  0.72739726  0.86982544  0.21095296    -0.01800
C922        C  0.71179394  0.89069788  0.19741401     0.06800
C923        C  0.69116283  0.90116940  0.21811552    -0.07700
C924        C  0.68485167  0.89006376  0.25118421     0.04300
C925        C  0.69946626  0.86797415  0.26393177    -0.14900
C926        C  0.72119887  0.85870102  0.24394785    -0.08300
C927        C  0.71504066  0.89988663  0.16033852     0.05200
C928        C  0.70728172  0.88281235  0.13299269    -0.09400
C929        C  0.71099424  0.88988234  0.09747139     0.00200
C930        C  0.72294498  0.91442594  0.08885027     0.00100
C931        C  0.72965082  0.93202335  0.11626315    -0.13000
C932        C  0.72578299  0.92490694  0.15190025     0.00500
C933        C  0.70150646  0.87196158  0.07047204     0.39900
C934        C  0.73380083  0.94306630  0.17940109     0.36500
C935        C  0.74939362  0.85904474  0.19091288     0.36200
C936        C  0.66206169  0.90053331  0.26990042     0.37000
N937        N  0.69362537  0.85760881  0.04901633    -0.43800
N938        N  0.74018885  0.95753977  0.20158074    -0.44300
N939        N  0.64376561  0.90892930  0.28482419    -0.41600
N940        N  0.76701230  0.85046041  0.17479085    -0.43100
H941        H  0.73279383  0.84201395  0.25349403     0.13100
H942        H  0.67914290  0.91722372  0.20760708     0.09600
H943        H  0.69837119  0.86382013  0.13951579     0.10600
H944        H  0.73874550  0.95093976  0.10988700     0.16500
C945        C  0.57206374  0.77322568  0.14817059    -0.01800
C946        C  0.59701644  0.76509389  0.16128650     0.06800
C947        C  0.61371683  0.74998181  0.13946737    -0.07700
C948        C  0.60689792  0.74461019  0.10415135     0.04300
C949        C  0.58281246  0.75482856  0.08975590    -0.14900
C950        C  0.56526633  0.76822473  0.11279352    -0.08300
C951        C  0.60712613  0.77402688  0.19638834     0.05200
C952        C  0.61440538  0.75522034  0.22214142    -0.09400
C953        C  0.62579719  0.76310031  0.25445221     0.00200
C954        C  0.62971156  0.79035288  0.26159843     0.00100
C955        C  0.62205256  0.80905972  0.23586860    -0.13000
C956        C  0.61139019  0.80116325  0.20335948     0.00500
C957        C  0.63324704  0.74281730  0.27960997     0.39900
C958        C  0.60668963  0.82119695  0.17663699     0.36500
C959        C  0.55327876  0.78716863  0.17038718     0.36200
C960        C  0.62544708  0.72893139  0.08370466     0.37000
N961        N  0.63925842  0.72649321  0.29966859    -0.43800
N962        N  0.60300135  0.83716445  0.15510630    -0.44300
N963        N  0.64042218  0.71631602  0.06757519    -0.41600
N964        N  0.53826525  0.79841597  0.18816342    -0.43100
H965        H  0.54637367  0.77556810  0.10304500     0.13100
H966        H  0.63270682  0.74320595  0.14969803     0.09600
H967        H  0.61152784  0.73430914  0.21673342     0.10600
H968        H  0.62564895  0.82998981  0.24036843     0.16500
C969        C  0.69827524  0.98238922  0.49423432    -0.01800
C970        C  0.70628101  0.97375574  0.46037631     0.06800
C971        C  0.72365659  0.98966804  0.44040370    -0.07700
C972        C  0.73334611  0.01378031  0.45377546     0.04300
C973        C  0.72523269  0.02269668  0.48780195    -0.14900
C974        C  0.70750639  0.00663822  0.50743605    -0.08300
C975        C  0.69782384  0.94754652  0.44618489     0.05200
C976        C  0.67118237  0.94353154  0.43638732    -0.09400
C977        C  0.66261486  0.91897176  0.42307617     0.00200
C978        C  0.68088106  0.89775777  0.41974844     0.00100
C979        C  0.70746641  0.90188047  0.42993965    -0.13000
C980        C  0.71602251  0.92643576  0.44287148     0.00500
C981        C  0.63490530  0.91594186  0.41392918     0.39900
C982        C  0.74355195  0.92944698  0.45297712     0.36500
C983        C  0.68163626  0.96605532  0.51664564     0.36200
C984        C  0.75266164  0.02789686  0.43259177     0.37000
N985        N  0.61269775  0.91348519  0.40657781    -0.43800
N986        N  0.76561254  0.93194069  0.46103397    -0.44300
N987        N  0.76828634  0.03879001  0.41531204    -0.41600
N988        N  0.66848481  0.95285161  0.53469180    -0.43100
H989        H  0.70101020  0.01278423  0.53361017     0.13100
H990        H  0.73016198  0.98286717  0.41450484     0.09600
H991        H  0.65707067  0.95967787  0.43909954     0.10600
H992        H  0.72182565  0.88597832  0.42714803     0.16500
C993        C  0.21705068  0.87448624  0.41763658    -0.01800
C994        C  0.22708544  0.84848162  0.42126301     0.06800
C995        C  0.25007273  0.84428524  0.44149386    -0.07700
C996        C  0.26199864  0.86505633  0.46004346     0.04300
C997        C  0.25089090  0.89077071  0.45870071    -0.14900
C998        C  0.22901091  0.89546987  0.43635343    -0.08300
C999        C  0.21318848  0.82478582  0.40684438     0.05200
C1000       C  0.21390644  0.81940262  0.37034874    -0.09400
C1001       C  0.20495957  0.79492902  0.35705320     0.00200
C1002       C  0.19521689  0.77523203  0.38067236     0.00100
C1003       C  0.19302853  0.78158644  0.41691523    -0.13000
C1004       C  0.20178775  0.80596800  0.43000907     0.00500
C1005       C  0.20774742  0.79009782  0.31950093     0.39900
C1006       C  0.19969317  0.81094418  0.46765607     0.36500
C1007       C  0.19384616  0.87976455  0.39628719     0.36200
C1008       C  0.28567223  0.85943706  0.48040632     0.37000
N1009       N  0.21007134  0.78620859  0.28940120    -0.43800
N1010       N  0.19807901  0.81498728  0.49779743    -0.44300
N1011       N  0.30467834  0.85503002  0.49666484    -0.41600
N1012       N  0.17528667  0.88392088  0.37902687    -0.43100
H1013       H  0.22046889  0.91518612  0.43491572     0.13100
H1014       H  0.25824425  0.82443602  0.44367657     0.09600
H1015       H  0.22265360  0.83384213  0.35243151     0.10600
H1016       H  0.18533564  0.76703753  0.43552290     0.14100
C1017       C  0.49827721  0.77920550  0.44280002    -0.01800
C1018       C  0.51725191  0.79333373  0.46268522     0.06800
C1019       C  0.51189977  0.79884369  0.49839771    -0.07700
C1020       C  0.48867216  0.78963365  0.51493106     0.04300
C1021       C  0.46978121  0.77457719  0.49537665    -0.14900
C1022       C  0.47488643  0.77010340  0.45911481    -0.08300
C1023       C  0.54345851  0.80126212  0.44744162     0.05200
C1024       C  0.54448782  0.81924246  0.41901032    -0.09400
C1025       C  0.56889380  0.82661790  0.40372512     0.00200
C1026       C  0.59299785  0.81596556  0.41708582     0.00100
C1027       C  0.59184211  0.79840718  0.44605035    -0.13000
C1028       C  0.56745807  0.79093914  0.46107892     0.00500
C1029       C  0.56852374  0.84560179  0.37498322     0.39900
C1030       C  0.56748679  0.77187401  0.48972387     0.36500
C1031       C  0.50284552  0.77281769  0.40596320     0.36200
C1032       C  0.48531983  0.79602751  0.55202111     0.37000
N1033       N  0.56818619  0.86082701  0.35196627    -0.43800
N1034       N  0.56735324  0.75661422  0.51269565    -0.44300
N1035       N  0.48280720  0.80113432  0.58177042    -0.41600
N1036       N  0.50650468  0.76770527  0.37643579    -0.43100
H1037       H  0.46089856  0.75896974  0.44343585     0.13100
H1038       H  0.52629963  0.81002717  0.51366285     0.09600
H1039       H  0.52612938  0.82754739  0.40875224     0.10600
H1040       H  0.61004283  0.78987102  0.45646250     0.16500
C1041       C  0.33382948  0.71743546  0.48221533    -0.01800
C1042       C  0.33611777  0.71192474  0.44574176     0.06800
C1043       C  0.36068942  0.71567812  0.42885352    -0.07700
C1044       C  0.38290981  0.72496826  0.44756782     0.04300
C1045       C  0.38069056  0.73105861  0.48421309    -0.14900
C1046       C  0.35589148  0.72674446  0.50098151    -0.08300
C1047       C  0.31245065  0.70507343  0.42411338     0.05200
C1048       C  0.30338151  0.72375620  0.39942852    -0.09400
C1049       C  0.27930923  0.72015319  0.38158159     0.00200
C1050       C  0.26372849  0.69725404  0.38832487     0.00100
C1051       C  0.27360899  0.67786267  0.41170705    -0.13000
C1052       C  0.29785213  0.68150590  0.42936138     0.00500
C1053       C  0.27041238  0.74133590  0.35863480     0.39900
C1054       C  0.30720840  0.66099587  0.45301043     0.36500
C1055       C  0.30871485  0.71490459  0.50067525     0.36200
C1056       C  0.40741558  0.72770181  0.42796869     0.37000
N1057       N  0.26344575  0.75840621  0.34031454    -0.43800
N1058       N  0.31469771  0.64453109  0.47194668    -0.44300
N1059       N  0.42668181  0.72948440  0.41128101    -0.41600
N1060       N  0.28861039  0.71280902  0.51545437    -0.43100
H1061       H  0.35330367  0.73125844  0.52888660     0.13100
H1062       H  0.36239933  0.71159996  0.40068319     0.09600
H1063       H  0.31460944  0.74188201  0.39531511     0.10600
H1064       H  0.26205704  0.66010208  0.41687878     0.16500
C1065       C  0.18296009  0.81746296  0.88149289    -0.01800
C1066       C  0.17664297  0.81142266  0.91714158     0.06800
C1067       C  0.19728191  0.81042565  0.94215218    -0.07700
C1068       C  0.22373105  0.81504390  0.93236321     0.04300
C1069       C  0.23023564  0.82032006  0.89648780    -0.14900
C1070       C  0.20960248  0.82155887  0.87140324    -0.08300
C1071       C  0.14918818  0.80423106  0.92905915     0.05200
C1072       C  0.13616407  0.78252942  0.91339048    -0.09400
C1073       C  0.11296725  0.77179519  0.92854036     0.00200
C1074       C  0.10289300  0.78238482  0.96050089     0.00100
C1075       C  0.11470772  0.80531008  0.97450937    -0.13000
C1076       C  0.13739518  0.81644696  0.95888397     0.00500
C1077       C  0.10121680  0.74869567  0.91236776     0.39900
C1078       C  0.14872155  0.83995338  0.97461430     0.36500
C1079       C  0.16244188  0.81978166  0.85495230     0.36200
C1080       C  0.24387442  0.81240583  0.95944684     0.37000
N1081       N  0.09168350  0.73026660  0.89931208    -0.43800
N1082       N  0.15783706  0.85878319  0.98717101    -0.44300
N1083       N  0.25993716  0.81026571  0.98122336    -0.41600
N1084       N  0.14591959  0.82166803  0.83376249    -0.43100
H1085       H  0.21433569  0.82554875  0.84380490     0.13100
H1086       H  0.19278676  0.80519281  0.96946240     0.09600
H1087       H  0.14497891  0.77294840  0.89047938     0.10600
H1088       H  0.10683415  0.81389729  0.99872241     0.16500
C1089       C  0.29743100  0.65053240  0.96162262    -0.01800
C1090       C  0.28619343  0.65913040  0.92938989     0.06800
C1091       C  0.26755505  0.64290412  0.91224364    -0.07700
C1092       C  0.25822957  0.61956202  0.92848861     0.04300
C1093       C  0.26726917  0.61265033  0.96279153    -0.14900
C1094       C  0.28770797  0.62769051  0.97821515    -0.08300
C1095       C  0.29043658  0.68670278  0.91664838     0.05200
C1096       C  0.30599884  0.69171281  0.88642051    -0.09400
C1097       C  0.31074616  0.71785076  0.87495868     0.00200
C1098       C  0.29954693  0.73940886  0.89380037     0.00100
C1099       C  0.28388519  0.73414398  0.92391757    -0.13000
C1100       C  0.27923765  0.70819699  0.93532616     0.00500
C1101       C  0.32814044  0.72199252  0.84493617     0.39900
C1102       C  0.26266113  0.70405190  0.96622541     0.36500
C1103       C  0.31806715  0.66561456  0.97892543     0.36200
C1104       C  0.23802509  0.60430925  0.91061548     0.37000
N1105       N  0.34223601  0.72532066  0.82101969    -0.43800
N1106       N  0.24946609  0.70064465  0.99102137    -0.44300
N1107       N  0.22194495  0.59200726  0.89614776    -0.41600
N1108       N  0.33468165  0.67767754  0.99265602    -0.43100
H1109       H  0.29534751  0.62218557  0.00411266     0.13100
H1110       H  0.25910131  0.64931304  0.88719210     0.09600
H1111       H  0.31482354  0.67522628  0.87219858     0.10600
H1112       H  0.27489717  0.75039740  0.93847527     0.16500
C1113       C  0.26864409  0.87087947  0.70451073    -0.01800
C1114       C  0.28670547  0.88844454  0.68790357     0.06800
C1115       C  0.30861461  0.89760755  0.70728432    -0.07700
C1116       C  0.31374670  0.88827559  0.74165608     0.04300
C1117       C  0.29684957  0.86891972  0.75732331    -0.14900
C1118       C  0.27390789  0.86118885  0.73869292    -0.08300
C1119       C  0.28347468  0.89726717  0.65030817     0.05200
C1120       C  0.28232296  0.92449339  0.64257329    -0.09400
C1121       C  0.27948194  0.93366100  0.60756977     0.00200
C1122       C  0.27732166  0.91529427  0.57928003     0.00100
C1123       C  0.27915961  0.88805949  0.58719679    -0.13000
C1124       C  0.28264796  0.87901404  0.62199664     0.00500
C1125       C  0.27844906  0.96196460  0.60196390     0.39900
C1126       C  0.28636739  0.85091990  0.62765465     0.36500
C1127       C  0.24461531  0.86237144  0.68697299     0.36200
C1128       C  0.33668051  0.89890273  0.75976642     0.37000
N1129       N  0.27780596  0.98468914  0.59771092    -0.43800
N1130       N  0.28929392  0.82839301  0.63205577    -0.44300
N1131       N  0.35504917  0.90750846  0.77418711    -0.41600
N1132       N  0.22544998  0.85541610  0.67281287    -0.43100
H1133       H  0.26039510  0.84681334  0.75030487     0.13100
H1134       H  0.32222349  0.91164672  0.69510058     0.09600
H1135       H  0.28349944  0.93868774  0.66409600     0.10600
H1136       H  0.27838557  0.87358683  0.56598995     0.16500
C1137       C  0.36968834  0.75992226  0.72243946    -0.01800
C1138       C  0.39327301  0.77181331  0.71001032     0.06800
C1139       C  0.40601077  0.79087952  0.73097635    -0.07700
C1140       C  0.39415566  0.80000918  0.76243290     0.04300
C1141       C  0.36884626  0.79020181  0.77276728    -0.14900
C1142       C  0.35765040  0.76920946  0.75340101    -0.08300
C1143       C  0.40152634  0.76830697  0.67257118     0.05200
C1144       C  0.38444247  0.77825235  0.64639015    -0.09400
C1145       C  0.38981736  0.77434879  0.61049875     0.00200
C1146       C  0.41287540  0.76041576  0.60016014     0.00100
C1147       C  0.43063884  0.75131288  0.62624666    -0.13000
C1148       C  0.42501766  0.75502632  0.66244580     0.00500
C1149       C  0.37170069  0.78551556  0.58477199     0.39900
C1150       C  0.44301738  0.74438765  0.68863524     0.36500
C1151       C  0.35668974  0.73919368  0.70257406     0.36200
C1152       C  0.40755014  0.82069657  0.78187426     0.37000
N1153       N  0.35722702  0.79452108  0.56417007    -0.43800
N1154       N  0.45742505  0.73581722  0.70964891    -0.44300
N1155       N  0.41835513  0.83720027  0.79752215    -0.41600
N1156       N  0.34638528  0.72260214  0.68651483    -0.43100
H1157       H  0.33866130  0.76089523  0.76138820     0.13100
H1158       H  0.42429337  0.79990648  0.72153999     0.09600
H1159       H  0.36660590  0.78891972  0.65415631     0.10600
H1160       H  0.44850738  0.74078400  0.61835743     0.16500
C1161       C  0.43993805  0.82622726  0.93866086    -0.01800
C1162       C  0.44462214  0.80041334  0.95172414     0.06800
C1163       C  0.42368363  0.78200423  0.95168035    -0.07700
C1164       C  0.39861868  0.78861880  0.93805607     0.04300
C1165       C  0.39386874  0.81447676  0.92474924    -0.14900
C1166       C  0.41477613  0.83302367  0.92542379    -0.08300
C1167       C  0.47139397  0.79174697  0.96420813     0.05200
C1168       C  0.48328960  0.80446658  0.99325370    -0.09400
C1169       C  0.50816593  0.79623911  0.00611720     0.00200
C1170       C  0.52135110  0.77447513  0.99026064     0.00100
C1171       C  0.50965745  0.76221907  0.96071529    -0.13000
C1172       C  0.48505579  0.77069558  0.94757226     0.00500
C1173       C  0.52025992  0.81132092  0.03432770     0.39900
C1174       C  0.47454042  0.75788322  0.91637733     0.36500
C1175       C  0.46091020  0.84575396  0.93717730     0.36200
C1176       C  0.37882325  0.76790645  0.93616365     0.37000
N1177       N  0.53009365  0.82355826  0.05668260    -0.43800
N1178       N  0.46611882  0.74768411  0.89133085    -0.44300
N1179       N  0.36309193  0.75120612  0.93446308    -0.41600
N1180       N  0.47771812  0.86140774  0.93596846    -0.43100
H1181       H  0.41158356  0.85286743  0.91515212     0.13100
H1182       H  0.42716607  0.76210190  0.96160158     0.09600
H1183       H  0.47311105  0.82091147  0.00587442     0.10600
H1184       H  0.51966572  0.74574068  0.94793293     0.16500
C1185       C  0.51524120  0.24243852  0.94743243    -0.01800
C1186       C  0.52757049  0.21957166  0.96151950     0.06800
C1187       C  0.51475002  0.20563065  0.98885136    -0.07700
C1188       C  0.48990200  0.21387368  0.00191053     0.04300
C1189       C  0.47732015  0.23668198  0.98762812    -0.14900
C1190       C  0.49027506  0.25063474  0.96025834    -0.08300
C1191       C  0.55359815  0.20962963  0.94769385     0.05200
C1192       C  0.57639415  0.21132932  0.96903916    -0.09400
C1193       C  0.60136775  0.20295839  0.95639920     0.00200
C1194       C  0.60382995  0.19239710  0.92175082     0.00100
C1195       C  0.58073286  0.18982078  0.90102122    -0.13000
C1196       C  0.55587510  0.19836107  0.91359668     0.00500
C1197       C  0.62395456  0.20486487  0.97986280     0.39900
C1198       C  0.53290172  0.19528696  0.89106198     0.36500
C1199       C  0.52824420  0.25817082  0.92046013     0.36200
C1200       C  0.47732630  0.19783771  0.02894693     0.37000
N1201       N  0.64207195  0.20631166  0.99865871    -0.43800
N1202       N  0.51447117  0.19287860  0.87301115    -0.44300
N1203       N  0.46722361  0.18496733  0.05057324    -0.41600
N1204       N  0.53880754  0.27075473  0.89892934    -0.43100
H1205       H  0.48114011  0.26833976  0.94934881     0.13100
H1206       H  0.52404284  0.18796078  0.99966611     0.09600
H1207       H  0.57470769  0.21952760  0.99552384     0.10600
H1208       H  0.58216364  0.18169704  0.87446638     0.16500
C1209       C  0.31017504  0.28749629  0.87470594    -0.01800
C1210       C  0.31936351  0.30122732  0.90487904     0.06800
C1211       C  0.30431657  0.32254969  0.91788368    -0.07700
C1212       C  0.27930080  0.32854240  0.90364039     0.04300
C1213       C  0.26893275  0.31322034  0.87562696    -0.14900
C1214       C  0.28525079  0.29381958  0.86005525    -0.08300
C1215       C  0.34247187  0.29163930  0.92615236     0.05200
C1216       C  0.36853018  0.29330371  0.91273389    -0.09400
C1217       C  0.39046440  0.28474197  0.93303880     0.00200
C1218       C  0.38643182  0.27404343  0.96747308     0.00100
C1219       C  0.36014258  0.27229497  0.98038693    -0.13000
C1220       C  0.33845243  0.28093592  0.96031164     0.00500
C1221       C  0.41675282  0.28817581  0.91828996     0.39900
C1222       C  0.31207179  0.27824405  0.97525805     0.36500
C1223       C  0.32495700  0.26551493  0.86016259     0.36200
C1224       C  0.26471198  0.35055047  0.91828044     0.37000
N1225       N  0.43777513  0.29108476  0.90630706    -0.43800
N1226       N  0.29093166  0.27619357  0.98719050    -0.44300
N1227       N  0.25352798  0.36855021  0.93000861    -0.41600
N1228       N  0.33682857  0.24786470  0.84858664    -0.43100
H1229       H  0.27774593  0.28231421  0.83802487     0.13100
H1230       H  0.31156152  0.33366531  0.94049309     0.09600
H1231       H  0.37175713  0.30168121  0.88655735     0.10600
H1232       H  0.35629137  0.26393385  0.00642002     0.16500
C1233       C  0.30219106  0.95154070  0.90362235    -0.01800
C1234       C  0.30054081  0.95610341  0.94046944     0.06800
C1235       C  0.30664704  0.93538022  0.96392563    -0.07700
C1236       C  0.31407142  0.91032283  0.95142401     0.04300
C1237       C  0.31538511  0.90546020  0.91442800    -0.14900
C1238       C  0.30964407  0.92647229  0.89096230    -0.08300
C1239       C  0.29157905  0.98191653  0.95544345     0.05200
C1240       C  0.26562245  0.99075193  0.94850682    -0.09400
C1241       C  0.25563260  0.01375228  0.96455219     0.00200
C1242       C  0.27169181  0.02829443  0.98832389     0.00100
C1243       C  0.29774970  0.01959453  0.99496273    -0.13000
C1244       C  0.30782559  0.99675774  0.97857126     0.00500
C1245       C  0.22838415  0.02117224  0.95760047     0.39900
C1246       C  0.33505232  0.98915907  0.98533067     0.36500
C1247       C  0.29655692  0.97231235  0.87830349     0.36200
C1248       C  0.32044174  0.89025738  0.97744028     0.37000
N1249       N  0.20652627  0.02706865  0.95206035    -0.43800
N1250       N  0.35687873  0.98301577  0.99059828    -0.44300
N1251       N  0.32552328  0.87425777  0.99841538    -0.41600
N1252       N  0.29202251  0.98893006  0.85797383    -0.43100
H1253       H  0.31047768  0.92323920  0.86254850     0.13100
H1254       H  0.30529155  0.93874987  0.99228993     0.09600
H1255       H  0.25288675  0.97923843  0.93119556     0.10600
H1256       H  0.31040438  0.03088555  0.01260921     0.16500
C1257       C  0.17827677  0.19983109  0.92736180    -0.01800
C1258       C  0.20211280  0.18555455  0.92196067     0.06800
C1259       C  0.22084613  0.19539953  0.89767208    -0.07700
C1260       C  0.21704662  0.21981021  0.88063646     0.04300
C1261       C  0.19424935  0.23531494  0.88843009    -0.14900
C1262       C  0.17479443  0.22470701  0.91126806    -0.08300
C1263       C  0.20896907  0.16129906  0.94276612     0.05200
C1264       C  0.21569383  0.13789490  0.92478571    -0.09400
C1265       C  0.22530818  0.11557267  0.94306792     0.00200
C1266       C  0.22835079  0.11635242  0.98054830     0.00100
C1267       C  0.22074270  0.13970850  0.99838947    -0.13000
C1268       C  0.21153279  0.16200946  0.98001009     0.00500
C1269       C  0.23248289  0.09272710  0.92210355     0.39900
C1270       C  0.20640611  0.18589795  0.99996403     0.36500
C1271       C  0.15707492  0.18925443  0.94906660     0.36200
C1272       C  0.23759758  0.22872266  0.85660922     0.37000
N1273       N  0.23824684  0.07460859  0.90492674    -0.43800
N1274       N  0.20222777  0.20499484  0.01600233    -0.44300
N1275       N  0.25413041  0.23537743  0.83713046    -0.41600
N1276       N  0.14007730  0.18071146  0.96640963    -0.43100
H1277       H  0.15686236  0.23596463  0.91675630     0.13100
H1278       H  0.23903695  0.18435507  0.89291287     0.09600
H1279       H  0.21398949  0.13729529  0.89610914     0.10600
H1280       H  0.22279058  0.14108482  0.02694952     0.16500
C1281       C  0.18779974  0.20213415  0.37814637    -0.01800
C1282       C  0.18081074  0.20770039  0.41359571     0.06800
C1283       C  0.20085696  0.20916876  0.43917386    -0.07700
C1284       C  0.22762945  0.20596898  0.43012525     0.04300
C1285       C  0.23509735  0.20125372  0.39423221    -0.14900
C1286       C  0.21474615  0.19912212  0.36869239    -0.08300
C1287       C  0.15300810  0.21274192  0.42547533     0.05200
C1288       C  0.14168512  0.19546642  0.45054914    -0.09400
C1289       C  0.11852919  0.20247179  0.46900669     0.00200
C1290       C  0.10640485  0.22724004  0.46266598     0.00100
C1291       C  0.11638046  0.24356082  0.43553319    -0.13000
C1292       C  0.13962730  0.23657064  0.41704092     0.00500
C1293       C  0.10772338  0.18413083  0.49473978     0.39900
C1294       C  0.15048132  0.25509377  0.39160672     0.36500
C1295       C  0.16763454  0.19898843  0.35130703     0.36200
C1296       C  0.24668366  0.20830161  0.45862226     0.37000
N1297       N  0.09887784  0.16938740  0.51516278    -0.43800
N1298       N  0.15913768  0.26991696  0.37114363    -0.44300
N1299       N  0.26181644  0.21017694  0.48158547    -0.41600
N1300       N  0.15139674  0.19637238  0.32988242    -0.43100
H1301       H  0.21983602  0.19521756  0.34122762     0.13100
H1302       H  0.19550918  0.21333179  0.46652763     0.09600
H1303       H  0.15171594  0.17702336  0.45692903     0.10600
H1304       H  0.10709547  0.26261207  0.43049340     0.16500
C1305       C  0.29469986  0.32023927  0.39341085    -0.01800
C1306       C  0.30034546  0.32737529  0.42884253     0.06800
C1307       C  0.31325877  0.30877146  0.45068609    -0.07700
C1308       C  0.31972028  0.28330591  0.43827886     0.04300
C1309       C  0.31267188  0.27568032  0.40330072    -0.14900
C1310       C  0.30076509  0.29476048  0.38114569    -0.08300
C1311       C  0.29108731  0.35319992  0.44416846     0.05200
C1312       C  0.26420741  0.36043215  0.44023721    -0.09400
C1313       C  0.25433484  0.38408194  0.45445649     0.00200
C1314       C  0.27101101  0.40040393  0.47492126     0.00100
C1315       C  0.29780941  0.39331162  0.47928308    -0.13000
C1316       C  0.30810276  0.37028150  0.46341361     0.00500
C1317       C  0.22671875  0.39072118  0.44875217     0.39900
C1318       C  0.33622169  0.36497179  0.46667443     0.36500
C1319       C  0.28226540  0.33855858  0.36904911     0.36200
C1320       C  0.33280037  0.26539342  0.46260089     0.37000
N1321       N  0.20466025  0.39621269  0.44394531    -0.43800
N1322       N  0.35878715  0.36081258  0.46920164    -0.44300
N1323       N  0.34338133  0.25112933  0.48210694    -0.41600
N1324       N  0.27202923  0.35315810  0.34967660    -0.43100
H1325       H  0.29548626  0.28962531  0.35413192     0.13100
H1326       H  0.31752239  0.31381844  0.47805070     0.09600
H1327       H  0.25068740  0.34736156  0.42631121     0.10600
H1328       H  0.31069881  0.40580734  0.49511254     0.16500
C1329       C  0.24828899  0.11019169  0.14768615    -0.01800
C1330       C  0.27272942  0.10453859  0.16445500     0.06800
C1331       C  0.29050631  0.08696490  0.14784360    -0.07700
C1332       C  0.28526520  0.07689072  0.11376628     0.04300
C1333       C  0.26189956  0.08468461  0.09555534    -0.14900
C1334       C  0.24323938  0.10054013  0.11356689    -0.08300
C1335       C  0.28089938  0.11850935  0.19764750     0.05200
C1336       C  0.28672476  0.10395601  0.22850219    -0.09400
C1337       C  0.29441963  0.11676528  0.26001854     0.00200
C1338       C  0.29610478  0.14479682  0.26115787     0.00100
C1339       C  0.29049707  0.15917122  0.23001419    -0.13000
C1340       C  0.28345601  0.14638338  0.19848654     0.00500
C1341       C  0.30016441  0.10063602  0.29073538     0.39900
C1342       C  0.28010504  0.16228183  0.16685716     0.36500
C1343       C  0.22831870  0.12646120  0.16461123     0.36200
C1344       C  0.30500604  0.06003155  0.09748603     0.37000
N1345       N  0.30485376  0.08770545  0.31534064    -0.43800
N1346       N  0.27741515  0.17493227  0.14146021    -0.44300
N1347       N  0.32085478  0.04644086  0.08460343    -0.41600
N1348       N  0.21238816  0.13962348  0.17809259    -0.43100
H1349       H  0.22481868  0.10605185  0.10053506     0.13100
H1350       H  0.30913628  0.08212309  0.16080290     0.09600
H1351       H  0.28517568  0.08251118  0.22797884     0.10600
H1352       H  0.29248865  0.18058985  0.22984513     0.16500
C1353       C  0.37934492  0.24678633  0.13263892    -0.01800
C1354       C  0.39835308  0.24443336  0.15995339     0.06800
C1355       C  0.42549475  0.24466942  0.15089711    -0.07700
C1356       C  0.43384360  0.24743649  0.11544418     0.04300
C1357       C  0.41475508  0.25043297  0.08806125    -0.14900
C1358       C  0.38760259  0.25020596  0.09744720    -0.08300
C1359       C  0.39016596  0.23878522  0.19733111     0.05200
C1360       C  0.39818018  0.21480407  0.21269219    -0.09400
C1361       C  0.38776381  0.20631926  0.24526145     0.00200
C1362       C  0.36839775  0.22193119  0.26324365     0.00100
C1363       C  0.36213784  0.24703877  0.24914070    -0.13000
C1364       C  0.37300832  0.25561408  0.21670496     0.00500
C1365       C  0.39684640  0.18097810  0.25847849     0.39900
C1366       C  0.36594653  0.28157024  0.20352413     0.36500
C1367       C  0.35119973  0.24405532  0.13965310     0.36200
C1368       C  0.46207268  0.24704811  0.10828509     0.37000
N1369       N  0.40414126  0.16064528  0.26892160    -0.43800
N1370       N  0.36025045  0.30234014  0.19286746    -0.44300
N1371       N  0.48471375  0.24654925  0.10262709    -0.41600
N1372       N  0.32867171  0.24180102  0.14532452    -0.43100
H1373       H  0.37251475  0.25178933  0.07703186     0.13100
H1374       H  0.44023821  0.24228305  0.17163844     0.09600
H1375       H  0.41180116  0.20200726  0.19833418     0.10600
H1376       H  0.34798320  0.25967782  0.26276131     0.16500
C1377       C  0.44801003  0.20878312  0.41075349    -0.01800
C1378       C  0.45090247  0.21055479  0.44782241     0.06800
C1379       C  0.42969820  0.20306236  0.46983277    -0.07700
C1380       C  0.40548392  0.19456701  0.45548240     0.04300
C1381       C  0.40207579  0.19372099  0.41810892    -0.14900
C1382       C  0.42380184  0.20044055  0.39623484    -0.08300
C1383       C  0.47567568  0.22081211  0.46415192     0.05200
C1384       C  0.48226434  0.24764073  0.45957583    -0.09400
C1385       C  0.50528226  0.25820848  0.47490836     0.00200
C1386       C  0.52207410  0.24180423  0.49531906     0.00100
C1387       C  0.51532555  0.21502424  0.50022417    -0.13000
C1388       C  0.49240546  0.20441131  0.48464313     0.00500
C1389       C  0.51062240  0.28616605  0.47074639     0.39900
C1390       C  0.48676275  0.17653712  0.48916419     0.36500
C1391       C  0.46975445  0.21521408  0.38716848     0.36200
C1392       C  0.38478880  0.18664252  0.47997191     0.37000
N1393       N  0.51491497  0.30859335  0.46767244    -0.43800
N1394       N  0.48216205  0.15419658  0.49258615    -0.44300
N1395       N  0.36827516  0.18025497  0.49966672    -0.41600
N1396       N  0.48727966  0.22031331  0.36839515    -0.43100
H1397       H  0.42177887  0.19973408  0.36760819     0.13100
H1398       H  0.43201710  0.20415749  0.49841067     0.09600
H1399       H  0.46921533  0.26039017  0.44426307     0.10600
H1400       H  0.52823253  0.20228163  0.51576209     0.16500
C1401       C  0.32335169  0.06271707  0.41386024    -0.01800
C1402       C  0.30811430  0.05910628  0.44487942     0.06800
C1403       C  0.29988301  0.08133392  0.46423750    -0.07700
C1404       C  0.30546875  0.10705988  0.45215929     0.04300
C1405       C  0.31910728  0.11083932  0.41955637    -0.14900
C1406       C  0.32855594  0.08836414  0.40134073    -0.08300
C1407       C  0.30020666  0.03227996  0.45724252     0.05200
C1408       C  0.31324886  0.02104047  0.48636687    -0.09400
C1409       C  0.30646412  0.99568278  0.49866365     0.00200
C1410       C  0.28574944  0.98119036  0.48201751     0.00100
C1411       C  0.27286756  0.99258763  0.45258750    -0.13000
C1412       C  0.27991845  0.01787585  0.44019038     0.00500
C1413       C  0.32206970  0.98474177  0.52730138     0.39900
C1414       C  0.26584038  0.02893577  0.41025525     0.36500
C1415       C  0.33414159  0.04034291  0.39480978     0.36200
C1416       C  0.29771707  0.12901694  0.47443856     0.37000
N1417       N  0.33471354  0.97602835  0.55015654    -0.43800
N1418       N  0.25467764  0.03795545  0.38627048    -0.44300
N1419       N  0.29173054  0.14659364  0.49246287    -0.41600
N1420       N  0.34295964  0.02236772  0.37980492    -0.43100
H1421       H  0.33977111  0.09073885  0.37693394     0.13100
H1422       H  0.28887130  0.07854189  0.48874905     0.09600
H1423       H  0.32910157  0.03199965  0.49919006     0.10600
H1424       H  0.25698906  0.98188930  0.43946597     0.16500
loop_ 
_geom_bond_atom_site_label_1 
_geom_bond_atom_site_label_2 
_geom_bond_distance 
_geom_bond_site_symmetry_2 
_ccdc_geom_bond_type 
O1           C16   1.265       .  A
O1           Al9   1.919       .  S
C2           O12   1.259       .  A
C2            O3   1.263       .  A
C2         C1405   1.491       .  S
O3           Al5   1.918       .  S
O4            C6   1.263       .  A
O4           Al5   1.907       .  S
Al5          O13   1.900       .  S
Al5          O15   1.899       .  S
Al5          O14   1.786       .  S
C6           O19   1.266       .  A
C6         C1338   1.495       .  S
O7           C17   1.265       .  A
O7           Al9   1.921       .  S
O8           C21   1.260       .  A
O8          Al18   1.898       .  S
Al9          O22   1.921       .  S
Al9          O19   1.922       .  S
Al9          O14   1.789       .  S
O10          C17   1.259       .  A
O10         Al18   1.896       .  S
O11          C20   1.261       .  A
O11         Al18   1.908       .  S
O12         Al18   1.893       .  S
O13          C20   1.261       .  A
O14         Al18   1.785       .  S
O15          C16   1.259       .  A
C16        C1362   1.497       .  S
C17        C1285   1.498       .  S
C20        C1381   1.490       .  S
C21          O22   1.265       .  A
C21        C1309   1.497       .  S
C23        C1242   1.483   1_554  S
C23          N24   1.360   1_554  A
C23          N28   1.363       .  A
N24          C25   1.358   1_556  A
C25        C1266   1.500   1_554  S
C25          N26   1.359       .  A
N26          C27   1.358       .  A
C27        C1333   1.493       .  S
C27          N28   1.361       .  A
C29        C1189   1.494   1_554  S
C29          N30   1.362       .  A
C29          N34   1.367   1_554  A
N30          C31   1.358       .  A
C31        C1357   1.497       .  S
C31          N32   1.356       .  A
N32          C33   1.358   1_554  A
C33        C1218   1.500       .  S
C33          N34   1.365       .  A
O35          C50   1.264       .  A
O35         Al43   1.911       .  S
C36          O46   1.258       .  A
C36          O37   1.263       .  A
C36        C1165   1.489       .  S
O37         Al39   1.923       .  S
O38          C40   1.262       .  A
O38         Al39   1.898       .  S
Al39         O47   1.896       .  S
Al39         O49   1.909       .  S
Al39         O48   1.786       .  S
C40          O53   1.267       .  A
C40        C1141   1.486       .  S
O41          C51   1.260       .  A
O41         Al43   1.903       .  S
O42          C55   1.261       .  A
O42         Al52   1.893       .  S
Al43         O56   1.926       .  S
Al43         O53   1.915       .  S
Al43         O48   1.781       .  S
O44          C51   1.262       .  A
O44         Al52   1.909       .  S
O45          C54   1.266       .  A
O45         Al52   1.924       .  S
O46         Al52   1.895       .  S
O47          C54   1.262       .  A
O48         Al52   1.779       .  S
O49          C50   1.260       .  A
C50        C1117   1.495       .  S
C51        C1098   1.485       .  S
C54        C1237   1.491       .  S
C55          O56   1.265       .  A
C55        C1069   1.485       .  S
C57        C1021   1.500       .  S
C57          N58   1.368       .  A
C57          N62   1.359       .  A
N58          C59   1.365       .  A
C59        C1045   1.500       .  S
C59          N60   1.358       .  A
N60          C61   1.353       .  A
C61        C1146   1.473       .  S
C61          N62   1.352       .  A
C63        C1410   1.492       .  S
C63          N64   1.361       .  A
C63          N68   1.366       .  A
N64          C65   1.357       .  A
C65        C1122   1.494       .  S
C65          N66   1.356       .  A
N66          C67   1.357       .  A
C67         C997   1.483       .  S
C67          N68   1.361       .  A
O69          C84   1.262       .  A
O69         Al77   1.899       .  S
C70          O80   1.257       .  A
C70          O71   1.263       .  A
C70         C978   1.489       .  S
O71         Al73   1.928       .  S
O72          C74   1.259       .  A
O72         Al73   1.893       .  S
Al73         O81   1.888       .  S
Al73         O83   1.920       .  S
Al73         O82   1.787       .  S
C74          O87   1.264       .  A
C74         C925   1.483       .  S
O75          C85   1.261       .  A
O75         Al77   1.893       .  S
O76          C89   1.261       .  A
O76         Al86   1.897       .  S
Al77         O90   1.918       .  S
Al77         O87   1.915       .  S
Al77         O82   1.786       .  S
O78          C85   1.264       .  A
O78         Al86   1.916       .  S
O79          C88   1.267       .  A
O79         Al86   1.929       .  S
O80         Al86   1.889       .  S
O81          C88   1.259       .  A
O82         Al86   1.781       .  S
O83          C84   1.265       .  A
C84         C954   1.486       .  S
C85         C877   1.481       .  S
C88        C1026   1.489       .  S
C89          O90   1.262       .  A
C89         C901   1.481       .  S
C91         C834   1.502   1_554  S
C91          N92   1.361       .  A
C91          N96   1.368   1_554  A
N92          C93   1.355       .  A
C93         C930   1.477       .  S
C93          N94   1.352       .  A
N94          C95   1.355   1_554  A
C95         C853   1.487       .  S
C95          N96   1.363       .  A
C97        C1170   1.486   1_554  S
C97          N98   1.359   1_554  A
C97         N102   1.362       .  A
N98          C99   1.355       .  A
C99         C805   1.470       .  S
C99         N100   1.355   1_556  A
N100        C101   1.357       .  A
C101        C949   1.499       .  S
C101        N102   1.363       .  A
O103        C118   1.260       .  A
O103       Al111   1.892       .  S
C104        O114   1.259       .  A
C104        O105   1.263       .  A
C104       C1194   1.492       .  S
O105       Al107   1.921       .  S
O106        C108   1.259       .  A
O106       Al107   1.891       .  S
Al107       O115   1.886       .  S
Al107       O117   1.916       .  S
Al107       O116   1.795       .  S
C108        O121   1.262       .  A
C108        C781   1.474       .  S
O109        C119   1.258       .  A
O109       Al111   1.890       .  S
O110        C123   1.260       .  A
O110       Al120   1.895       .  S
Al111       O124   1.916       .  S
Al111       O121   1.906       .  S
Al111       O116   1.792       .  S
O112        C119   1.263       .  A
O112       Al120   1.917       .  S
O113        C122   1.265       .  A
O113       Al120   1.926       .  S
O114       Al120   1.898       .  S
O115        C122   1.258       .  A
O116       Al120   1.787       .  S
O117        C118   1.262       .  A
C118        C757   1.479       .  S
C119        C738   1.479       .  S
C122        C829   1.487       .  S
C123        O124   1.262       .  A
C123        C714   1.496       .  S
C125       C1386   1.476       .  S
C125        N126   1.362       .  A
C125        N130   1.359       .  A
N126        C127   1.361       .  A
C127        C690   1.497       .  S
C127        N128   1.354       .  A
N128        C129   1.354       .  A
C129        C786   1.479       .  S
C129        N130   1.357       .  A
C131        C973   1.499       .  S
C131        N132   1.368       .  A
C131        N136   1.363       .  A
N132        C133   1.366       .  A
C133        C666   1.498       .  S
C133        N134   1.354       .  A
N134        C135   1.351       .  A
C135        C762   1.478       .  S
C135        N136   1.355       .  A
O137        C152   1.260       .  A
O137       Al145   1.896       .  S
C138        O148   1.261       .  A
C138        O139   1.266       .  A
C138        C642   1.494       .  S
O139       Al141   1.928       .  S
O140        C142   1.260       .  A
O140       Al141   1.897       .  S
Al141       O149   1.899       .  S
Al141       O151   1.916       .  S
Al141       O150   1.787       .  S
C142        O155   1.264       .  A
C142        C570   1.490       .  S
O143        C153   1.261       .  A
O143       Al145   1.904       .  S
O144        C157   1.261       .  A
O144       Al154   1.894       .  S
Al145       O158   1.921       .  S
Al145       O155   1.917       .  S
Al145       O150   1.789       .  S
O146        C153   1.261       .  A
O146       Al154   1.910       .  S
O147        C156   1.261       .  A
O147       Al154   1.918       .  S
O148       Al154   1.890       .  S
O149        C156   1.260       .  A
O150       Al154   1.784       .  S
O151        C152   1.263       .  A
C152        C589   1.484       .  S
C153        C661   1.479       .  S
C156        C613   1.497       .  S
C157        O158   1.264       .  A
C157        C685   1.480       .  S
C159        C546   1.496   1_554  S
C159        N160   1.363       .  A
C159        N164   1.361   1_554  A
N160        C161   1.361       .  A
C161        C565   1.489       .  S
C161        N162   1.358       .  A
N162        C163   1.354   1_554  A
C163        C709   1.472       .  S
C163        N164   1.355       .  A
C165        C522   1.498       .  S
C165        N166   1.364       .  A
C165        N170   1.362   1_556  A
N166        C167   1.360       .  A
C167        C733   1.482       .  S
C167        N168   1.356   1_556  A
N168        C169   1.354       .  A
C169        C594   1.475       .  S
C169        N170   1.357       .  A
O171        C186   1.264       .  A
O171       Al179   1.912       .  S
C172        O182   1.259       .  A
C172        O173   1.261       .  A
C172        C493   1.498       .  S
O173       Al175   1.921       .  S
O174        C176   1.262       .  A
O174       Al175   1.900       .  S
Al175       O183   1.887       .  S
Al175       O185   1.909       .  S
Al175       O184   1.790       .  S
C176        O189   1.263       .  A
C176        C469   1.486       .  S
O177        C187   1.264       .  A
O177       Al179   1.909       .  S
O178        C191   1.259       .  A
O178       Al188   1.902       .  S
Al179       O192   1.913       .  S
Al179       O189   1.915       .  S
Al179       O184   1.792       .  S
O180        C187   1.265       .  A
O180       Al188   1.918       .  S
O181        C190   1.266       .  A
O181       Al188   1.924       .  S
O182       Al188   1.895       .  S
O183        C190   1.258       .  A
O184       Al188   1.784       .  S
O185        C186   1.261       .  A
C186        C450   1.496       .  S
C187       C1213   1.485       .  S
C190        C541   1.493       .  S
C191        O192   1.260       .  A
C191       C1261   1.489       .  S
C193        C426   1.485       .  S
C193        N194   1.363       .  A
C193        N198   1.361       .  A
N194        C195   1.360       .  A
C195       C1314   1.476       .  S
C195        N196   1.355       .  A
N196        C197   1.357       .  A
C197        C474   1.482       .  S
C197        N198   1.359       .  A
C199        C637   1.491       .  S
C199        N200   1.364       .  A
C199        N204   1.362       .  A
N200        C201   1.363       .  A
C201        C445   1.497       .  S
C201        N202   1.358       .  A
N202        C203   1.355       .  A
C203       C1290   1.477       .  S
C203        N204   1.357       .  A
O205        C220   1.263       .  A
O205       Al213   1.909       .  S
C206        O216   1.259       .  A
C206        O207   1.265       .  A
C206        C397   1.487       .  S
O207       Al209   1.926       .  S
O208        C210   1.260       .  A
O208       Al209   1.893       .  S
Al209       O217   1.883       .  S
Al209       O219   1.905       .  S
Al209       O218   1.785       .  S
C210        O223   1.263       .  A
C210        C349   1.478       .  S
O211        C221   1.264       .  A
O211       Al213   1.912       .  S
O212        C225   1.261       .  A
O212       Al222   1.895       .  S
Al213       O226   1.915       .  S
Al213       O223   1.913       .  S
Al213       O218   1.786       .  S
O214        C221   1.264       .  A
O214       Al222   1.913       .  S
O215        C224   1.264       .  A
O215       Al222   1.927       .  S
O216       Al222   1.886       .  S
O217        C224   1.256       .  A
O218       Al222   1.784       .  S
O219        C220   1.263       .  A
C220        C378   1.495       .  S
C221       C1002   1.494       .  S
C224        C421   1.495       .  S
C225        O226   1.263       .  A
C225       C1050   1.484       .  S
C227        C325   1.481       .  S
C227        N228   1.364       .  A
C227        N232   1.361   1_556  A
N228        C229   1.361       .  A
C229       C1074   1.482       .  S
C229        N230   1.354   1_556  A
N230        C231   1.354       .  A
C231        C354   1.486       .  S
C231        N232   1.358       .  A
C233        C498   1.498       .  S
C233        N234   1.364       .  A
C233        N238   1.367   1_556  A
N234        C235   1.358       .  A
C235       C1093   1.483       .  S
C235        N236   1.353   1_556  A
N236        C237   1.354       .  A
C237        C373   1.487       .  S
C237        N238   1.362       .  A
O239        C254   1.263       .  A
O239       Al247   1.902       .  S
C240        O250   1.259       .  A
C240        O241   1.265       .  A
C240        C517   1.494       .  S
O241       Al243   1.921       .  S
O242        C244   1.261       .  A
O242       Al243   1.905       .  S
Al243       O251   1.894       .  S
Al243       O253   1.907       .  S
Al243       O252   1.784       .  S
C244        O257   1.262       .  A
C244        C301   1.485       .  S
O245        C255   1.262       .  A
O245       Al247   1.905       .  S
O246        C259   1.264       .  A
O246       Al256   1.907       .  S
Al247       O260   1.913       .  S
Al247       O257   1.906       .  S
Al247       O252   1.781       .  S
O248        C255   1.263       .  A
O248       Al256   1.904       .  S
O249        C258   1.262       .  A
O249       Al256   1.920       .  S
O250       Al256   1.893       .  S
O251        C258   1.259       .  A
O252       Al256   1.782       .  S
O253        C254   1.263       .  A
C254        C277   1.486       .  S
C255        C810   1.489       .  S
C258        C330   1.483       .  S
C259        O260   1.262       .  A
C259        C858   1.494       .  S
C261        C618   1.491       .  S
C261        N262   1.361       .  A
C261        N266   1.363       .  A
N262        C263   1.358       .  A
C263        C906   1.484       .  S
C263        N264   1.358       .  A
N264        C265   1.358       .  A
C265        C306   1.487       .  S
C265        N266   1.360       .  A
C267        C402   1.491       .  S
C267        N268   1.362       .  A
C267        N272   1.366       .  A
N268        C269   1.353       .  A
C269        C882   1.466       .  S
C269        N270   1.349       .  A
N270        C271   1.353       .  A
C271        C282   1.497       .  S
C271        N272   1.364       .  A
C273        C274   1.407       .  A
C273        C278   1.397       .  A
C273        C287   1.445       .  S
C274        C279   1.482       .  S
C274        C275   1.403       .  A
C275        C276   1.403       .  A
C275        H294   1.084       .  S
C276        C277   1.415       .  A
C276        C288   1.443       .  S
C277        C278   1.408       .  A
C278        H293   1.084       .  S
C279        C280   1.395       .  A
C279        C284   1.408       .  A
C280        C281   1.397       .  A
C280        H295   1.086       .  S
C281        C282   1.426       .  A
C281        C285   1.445       .  S
C282        C283   1.410       .  A
C283        C284   1.404       .  A
C283        H296   1.084       .  S
C284        C286   1.443       .  S
C285        N289   1.158       .  T
C286        N290   1.157       .  T
C287        N292   1.157       .  T
C288        N291   1.157       .  T
C297        C298   1.411       .  A
C297        C302   1.407       .  A
C297        C311   1.443       .  S
C298        C303   1.484       .  S
C298        C299   1.398       .  A
C299        C300   1.394       .  A
C299        H318   1.086       .  S
C300        C301   1.417       .  A
C300        C312   1.446       .  S
C301        C302   1.408       .  A
C302        H317   1.085       .  S
C303        C304   1.401       .  A
C303        C308   1.410       .  A
C304        C305   1.400       .  A
C304        H319   1.085       .  S
C305        C306   1.415       .  A
C305        C309   1.444       .  S
C306        C307   1.407       .  A
C307        C308   1.404       .  A
C307        H320   1.084       .  S
C308        C310   1.444       .  S
C309        N313   1.157       .  T
C310        N314   1.157       .  T
C311        N316   1.157       .  T
C312        N315   1.157       .  T
C321        C322   1.414       .  A
C321        C326   1.403   1_655  A
C321        C335   1.444   1_655  S
C322        C327   1.493       .  S
C322        C323   1.404       .  A
C323        C324   1.401       .  A
C323        H342   1.084       .  S
C324        C325   1.413   1_655  A
C324        C336   1.444   1_556  S
C325        C326   1.404       .  A
C326        H341   1.084       .  S
C327        C328   1.406       .  A
C327        C332   1.414       .  A
C328        C329   1.402       .  A
C328        H343   1.085       .  S
C329        C330   1.413       .  A
C329        C333   1.444       .  S
C330        C331   1.404       .  A
C331        C332   1.401       .  A
C331        H344   1.085       .  S
C332        C334   1.444       .  S
C333        N337   1.157       .  T
C334        N338   1.157       .  T
C335        N340   1.157       .  T
C336        N339   1.157       .  T
C345        C346   1.413       .  A
C345        C350   1.400       .  A
C345        C359   1.444       .  S
C346        C351   1.488       .  S
C346        C347   1.403       .  A
C347        C348   1.400       .  A
C347        H366   1.085       .  S
C348        C349   1.415       .  A
C348        C360   1.445       .  S
C349        C350   1.403       .  A
C350        H365   1.085       .  S
C351        C352   1.401       .  A
C351        C356   1.412       .  A
C352        C353   1.397       .  A
C352        H367   1.085       .  S
C353        C354   1.418       .  A
C353        C357   1.446       .  S
C354        C355   1.406       .  A
C355        C356   1.403       .  A
C355        H368   1.084       .  S
C356        C358   1.444       .  S
C357        N361   1.158       .  T
C358        N362   1.157       .  T
C359        N364   1.157       .  T
C360        N363   1.157       .  T
C369        C370   1.411       .  A
C369        C374   1.407       .  A
C369        C383   1.443       .  S
C370        C375   1.486       .  S
C370        C371   1.399       .  A
C371        C372   1.398       .  A
C371        H390   1.085       .  S
C372        C373   1.418       .  A
C372        C384   1.445       .  S
C373        C374   1.406       .  A
C374        H389   1.084       .  S
C375        C376   1.403       .  A
C375        C380   1.406       .  A
C376        C377   1.405       .  A
C376        H391   1.085       .  S
C377        C378   1.418       .  A
C377        C381   1.444       .  S
C378        C379   1.411       .  A
C379        C380   1.398       .  A
C379        H392   1.084       .  S
C380        C382   1.444       .  S
C381        N385   1.158       .  T
C382        N386   1.157       .  T
C383        N388   1.157       .  T
C384        N387   1.157       .  T
C393        C394   1.410       .  A
C393        C398   1.403       .  A
C393        C407   1.443       .  S
C394        C399   1.487       .  S
C394        C395   1.401       .  A
C395        C396   1.399       .  A
C395        H414   1.085       .  S
C396        C397   1.417       .  A
C396        C408   1.444       .  S
C397        C398   1.407       .  A
C398        H413   1.085       .  S
C399        C400   1.403       .  A
C399        C404   1.409       .  A
C400        C401   1.404   1_455  A
C400        H415   1.085       .  S
C401        C402   1.418       .  A
C401        C405   1.444       .  S
C402        C403   1.408       .  A
C403        C404   1.399   1_655  A
C403        H416   1.084       .  S
C404        C406   1.445       .  S
C405        N409   1.157       .  T
C406        N410   1.157       .  T
C407        N412   1.157       .  T
C408        N411   1.157       .  T
C417        C418   1.408       .  A
C417        C422   1.402       .  A
C417        C431   1.444       .  S
C418        C423   1.486       .  S
C418        C419   1.399       .  A
C419        C420   1.401       .  A
C419        H438   1.085       .  S
C420        C421   1.422       .  A
C420        C432   1.445       .  S
C421        C422   1.409       .  A
C422        H437   1.084       .  S
C423        C424   1.402       .  A
C423        C428   1.410       .  A
C424        C425   1.403       .  A
C424        H439   1.085       .  S
C425        C426   1.415       .  A
C425        C429   1.444       .  S
C426        C427   1.405       .  A
C427        C428   1.402       .  A
C427        H440   1.085       .  S
C428        C430   1.444       .  S
C429        N433   1.157       .  T
C430        N434   1.157       .  T
C431        N436   1.157       .  T
C432        N435   1.158       .  T
C441        C442   1.410       .  A
C441        C446   1.400       .  A
C441        C455   1.445       .  S
C442        C447   1.490       .  S
C442        C443   1.404       .  A
C443        C444   1.405       .  A
C443        H462   1.085       .  S
C444        C445   1.418       .  A
C444        C456   1.443       .  S
C445        C446   1.410       .  A
C446        H461   1.084       .  S
C447        C448   1.399       .  A
C447        C452   1.411       .  A
C448        C449   1.399       .  A
C448        H463   1.085       .  S
C449        C450   1.422       .  A
C449        C453   1.444       .  S
C450        C451   1.409       .  A
C451        C452   1.405       .  A
C451        H464   1.084       .  S
C452        C454   1.444       .  S
C453        N457   1.157       .  T
C454        N458   1.157       .  T
C455        N460   1.157       .  T
C456        N459   1.157       .  T
C465        C466   1.409       .  A
C465        C470   1.404       .  A
C465        C479   1.443       .  S
C466        C471   1.483       .  S
C466        C467   1.400       .  A
C467        C468   1.397       .  A
C467        H486   1.085       .  S
C468        C469   1.418       .  A
C468        C480   1.446       .  S
C469        C470   1.408       .  A
C470        H485   1.084       .  S
C471        C472   1.402       .  A
C471        C476   1.410       .  A
C472        C473   1.400       .  A
C472        H487   1.085       .  S
C473        C474   1.414       .  A
C473        C477   1.444       .  S
C474        C475   1.406       .  A
C475        C476   1.402       .  A
C475        H488   1.084       .  S
C476        C478   1.444       .  S
C477        N481   1.157       .  T
C478        N482   1.157       .  T
C479        N484   1.157       .  T
C480        N483   1.158       .  T
C489        C490   1.407       .  A
C489        C494   1.401       .  A
C489        C503   1.444       .  S
C490        C495   1.487       .  S
C490        C491   1.402       .  A
C491        C492   1.406       .  A
C491        H510   1.085       .  S
C492        C493   1.420       .  A
C492        C504   1.444       .  S
C493        C494   1.409       .  A
C494        H509   1.083       .  S
C495        C496   1.400       .  A
C495        C500   1.408       .  A
C496        C497   1.402       .  A
C496        H511   1.085       .  S
C497        C498   1.421       .  A
C497        C501   1.444       .  S
C498        C499   1.410       .  A
C499        C500   1.405       .  A
C499        H512   1.084   1_556  S
C500        C502   1.443   1_556  S
C501        N505   1.157       .  T
C502        N506   1.157       .  T
C503        N508   1.157   1_556  T
C504        N507   1.157       .  T
C513        C514   1.407       .  A
C513        C518   1.401       .  A
C513        C527   1.444       .  S
C514        C519   1.483       .  S
C514        C515   1.399       .  A
C515        C516   1.401       .  A
C515        H534   1.085       .  S
C516        C517   1.421       .  A
C516        C528   1.444       .  S
C517        C518   1.410       .  A
C518        H533   1.084       .  S
C519        C520   1.398       .  A
C519        C524   1.407       .  A
C520        C521   1.401   1_556  A
C520        H535   1.085       .  S
C521        C522   1.422   1_554  A
C521        C525   1.444       .  S
C522        C523   1.411       .  A
C523        C524   1.402       .  A
C523        H536   1.084       .  S
C524        C526   1.444       .  S
C525        N529   1.157       .  T
C526        N530   1.157       .  T
C527        N532   1.157       .  T
C528        N531   1.157       .  T
C537        C538   1.411       .  A
C537        C542   1.401       .  A
C537        C551   1.444       .  S
C538        C543   1.492       .  S
C538        C539   1.403       .  A
C539        C540   1.402       .  A
C539        H558   1.085       .  S
C540        C541   1.420       .  A
C540        C552   1.444       .  S
C541        C542   1.408       .  A
C542        H557   1.084       .  S
C543        C544   1.403       .  A
C543        C548   1.410       .  A
C544        C545   1.403   1_456  A
C544        H559   1.085   1_556  S
C545        C546   1.420   1_554  A
C545        C549   1.444       .  S
C546        C547   1.409       .  A
C547        C548   1.399   1_655  A
C547        H560   1.084       .  S
C548        C550   1.445       .  S
C549        N553   1.157       .  T
C550        N554   1.157       .  T
C551        N556   1.157   1_556  T
C552        N555   1.157       .  T
C561        C562   1.412       .  A
C561        C566   1.407       .  A
C561        C575   1.443       .  S
C562        C567   1.491       .  S
C562        C563   1.402       .  A
C563        C564   1.397       .  A
C563        H582   1.085       .  S
C564        C565   1.416       .  A
C564        C576   1.445       .  S
C565        C566   1.408       .  A
C566        H581   1.085       .  S
C567        C568   1.403       .  A
C567        C572   1.411       .  A
C568        C569   1.405       .  A
C568        H583   1.084       .  S
C569        C570   1.419       .  A
C569        C573   1.444       .  S
C570        C571   1.405       .  A
C571        C572   1.400       .  A
C571        H584   1.085       .  S
C572        C574   1.444       .  S
C573        N577   1.157       .  T
C574        N578   1.157       .  T
C575        N580   1.157       .  T
C576        N579   1.157       .  T
C585        C586   1.412       .  A
C585        C590   1.403       .  A
C585        C599   1.444       .  S
C586        C591   1.491       .  S
C586        C587   1.404       .  A
C587        C588   1.400       .  A
C587        H606   1.085       .  S
C588        C589   1.415       .  A
C588        C600   1.445       .  S
C589        C590   1.406       .  A
C590        H605   1.085       .  S
C591        C592   1.406       .  A
C591        C596   1.413       .  A
C592        C593   1.401       .  A
C592        H607   1.085       .  S
C593        C594   1.409       .  A
C593        C597   1.444       .  S
C594        C595   1.402       .  A
C595        C596   1.401       .  A
C595        H608   1.085       .  S
C596        C598   1.444       .  S
C597        N601   1.157       .  T
C598        N602   1.157       .  T
C599        N604   1.157       .  T
C600        N603   1.157       .  T
C609        C610   1.409       .  A
C609        C614   1.403       .  A
C609        C623   1.444       .  S
C610        C615   1.489       .  S
C610        C611   1.401       .  A
C611        C612   1.402       .  A
C611        H630   1.085       .  S
C612        C613   1.421       .  A
C612        C624   1.444       .  S
C613        C614   1.410       .  A
C614        H629   1.085       .  S
C615        C616   1.402       .  A
C615        C620   1.410       .  A
C616        C617   1.402       .  A
C616        H631   1.085       .  S
C617        C618   1.418       .  A
C617        C621   1.444       .  S
C618        C619   1.408       .  A
C619        C620   1.402       .  A
C619        H632   1.085       .  S
C620        C622   1.444       .  S
C621        N625   1.157       .  T
C622        N626   1.157       .  T
C623        N628   1.157       .  T
C624        N627   1.157       .  T
C633        C634   1.411       .  A
C633        C638   1.405   1_655  A
C633        C647   1.444       .  S
C634        C639   1.490       .  S
C634        C635   1.402       .  A
C635        C636   1.401   1_655  A
C635        H654   1.085       .  S
C636        C637   1.417       .  A
C636        C648   1.444       .  S
C637        C638   1.408       .  A
C638        H653   1.085       .  S
C639        C640   1.403       .  A
C639        C644   1.410       .  A
C640        C641   1.404       .  A
C640        H655   1.085       .  S
C641        C642   1.419       .  A
C641        C645   1.444       .  S
C642        C643   1.409       .  A
C643        C644   1.401       .  A
C643        H656   1.084       .  S
C644        C646   1.444       .  S
C645        N649   1.157       .  T
C646        N650   1.157       .  T
C647        N652   1.157       .  T
C648        N651   1.157       .  T
C657        C658   1.413       .  A
C657        C662   1.401       .  A
C657        C671   1.444       .  S
C658        C663   1.492       .  S
C658        C659   1.405       .  A
C659        C660   1.404       .  A
C659        H678   1.084       .  S
C660        C661   1.412       .  A
C660        C672   1.444       .  S
C661        C662   1.403       .  A
C662        H677   1.085       .  S
C663        C664   1.400       .  A
C663        C668   1.411       .  A
C664        C665   1.398       .  A
C664        H679   1.085       .  S
C665        C666   1.423       .  A
C665        C669   1.446       .  S
C666        C667   1.409       .  A
C667        C668   1.408       .  A
C667        H680   1.082       .  S
C668        C670   1.443       .  S
C669        N673   1.158       .  T
C670        N674   1.157       .  T
C671        N676   1.157       .  T
C672        N675   1.157       .  T
C681        C682   1.412       .  A
C681        C686   1.399       .  A
C681        C695   1.445       .  S
C682        C687   1.487       .  S
C682        C683   1.405       .  A
C683        C684   1.402       .  A
C683        H702   1.084       .  S
C684        C685   1.413       .  A
C684        C696   1.444       .  S
C685        C686   1.404       .  A
C686        H701   1.085       .  S
C687        C688   1.398       .  A
C687        C692   1.409       .  A
C688        C689   1.397       .  A
C688        H703   1.086       .  S
C689        C690   1.424       .  A
C689        C693   1.445       .  S
C690        C691   1.410       .  A
C691        C692   1.403       .  A
C691        H704   1.084       .  S
C692        C694   1.443       .  S
C693        N697   1.158       .  T
C694        N698   1.157       .  T
C695        N700   1.157       .  T
C696        N699   1.157       .  T
C705        C706   1.416       .  A
C705        C710   1.402       .  A
C705        C719   1.444       .  S
C706        C711   1.494       .  S
C706        C707   1.406       .  A
C707        C708   1.400       .  A
C707        H726   1.087       .  S
C708        C709   1.408       .  A
C708        C720   1.444       .  S
C709        C710   1.400       .  A
C710        H725   1.088       .  S
C711        C712   1.403       .  A
C711        C716   1.412       .  A
C712        C713   1.399       .  A
C712        H727   1.081       .  S
C713        C714   1.418       .  A
C713        C717   1.443       .  S
C714        C715   1.412       .  A
C715        C716   1.405       .  A
C715        H728   1.081       .  S
C716        C718   1.444       .  S
C717        N721   1.157       .  T
C718        N722   1.157       .  T
C719        N724   1.157       .  T
C720        N723   1.157       .  T
C729        C730   1.409       .  A
C729        C734   1.405       .  A
C729        C743   1.442       .  S
C730        C735   1.482       .  S
C730        C731   1.400       .  A
C731        C732   1.397       .  A
C731        H750   1.085       .  S
C732        C733   1.414       .  A
C732        C744   1.445       .  S
C733        C734   1.407       .  A
C734        H749   1.084       .  S
C735        C736   1.401       .  A
C735        C740   1.410       .  A
C736        C737   1.402       .  A
C736        H751   1.085       .  S
C737        C738   1.416       .  A
C737        C741   1.444       .  S
C738        C739   1.403       .  A
C739        C740   1.401       .  A
C739        H752   1.085       .  S
C740        C742   1.443       .  S
C741        N745   1.157       .  T
C742        N746   1.157       .  T
C743        N748   1.157       .  T
C744        N747   1.157   1_556  T
C753        C754   1.414       .  A
C753        C758   1.398       .  A
C753        C767   1.445       .  S
C754        C759   1.491       .  S
C754        C755   1.405       .  A
C755        C756   1.403       .  A
C755        H774   1.085       .  S
C756        C757   1.412       .  A
C756        C768   1.442       .  S
C757        C758   1.402       .  A
C758        H773   1.085       .  S
C759        C760   1.404       .  A
C759        C764   1.414       .  A
C760        C761   1.398       .  A
C760        H775   1.085       .  S
C761        C762   1.411       .  A
C761        C765   1.444       .  S
C762        C763   1.403       .  A
C763        C764   1.403       .  A
C763        H776   1.085       .  S
C764        C766   1.444       .  S
C765        N769   1.157       .  T
C766        N770   1.157       .  T
C767        N772   1.157       .  T
C768        N771   1.156       .  T
C777        C778   1.410       .  A
C777        C782   1.400       .  A
C777        C791   1.444       .  S
C778        C783   1.480       .  S
C778        C779   1.402       .  A
C779        C780   1.397       .  A
C779        H798   1.085       .  S
C780        C781   1.412       .  A
C780        C792   1.444       .  S
C781        C782   1.404       .  A
C782        H797   1.085       .  S
C783        C784   1.403       .  A
C783        C788   1.410       .  A
C784        C785   1.404       .  A
C784        H799   1.085       .  S
C785        C786   1.414       .  A
C785        C789   1.443       .  S
C786        C787   1.404       .  A
C787        C788   1.393       .  A
C787        H800   1.085       .  S
C788        C790   1.445       .  S
C789        N793   1.157       .  T
C790        N794   1.157       .  T
C791        N796   1.157       .  T
C792        N795   1.157       .  T
C801        C802   1.411       .  A
C801        C806   1.400       .  A
C801        C815   1.444       .  S
C802        C807   1.483       .  S
C802        C803   1.403       .  A
C803        C804   1.401       .  A
C803        H822   1.085       .  S
C804        C805   1.410       .  A
C804        C816   1.444       .  S
C805        C806   1.401       .  A
C806        H821   1.085       .  S
C807        C808   1.403       .  A
C807        C812   1.408       .  A
C808        C809   1.405       .  A
C808        H823   1.084       .  S
C809        C810   1.418       .  A
C809        C813   1.444       .  S
C810        C811   1.408       .  A
C811        C812   1.394       .  A
C811        H824   1.084       .  S
C812        C814   1.446       .  S
C813        N817   1.157       .  T
C814        N818   1.157   1_556  T
C815        N820   1.157       .  T
C816        N819   1.157       .  T
C825        C826   1.411       .  A
C825        C830   1.401       .  A
C825        C839   1.444       .  S
C826        C831   1.489       .  S
C826        C827   1.403       .  A
C827        C828   1.403       .  A
C827        H846   1.085       .  S
C828        C829   1.416       .  A
C828        C840   1.444       .  S
C829        C830   1.405       .  A
C830        H845   1.083       .  S
C831        C832   1.399       .  A
C831        C836   1.409       .  A
C832        C833   1.401   1_546  A
C832        H847   1.085   1_556  S
C833        C834   1.425   1_554  A
C833        C837   1.445       .  S
C834        C835   1.411       .  A
C835        C836   1.404   1_565  A
C835        H848   1.084       .  S
C836        C838   1.444       .  S
C837        N841   1.158       .  T
C838        N842   1.157       .  T
C839        N844   1.157       .  T
C840        N843   1.157       .  T
C849        C850   1.409       .  A
C849        C854   1.395       .  A
C849        C863   1.445       .  S
C850        C855   1.487       .  S
C850        C851   1.405       .  A
C851        C852   1.409       .  A
C851        H870   1.084       .  S
C852        C853   1.415       .  A
C852        C864   1.443       .  S
C853        C854   1.405       .  A
C854        H869   1.083       .  S
C855        C856   1.399       .  A
C855        C860   1.410       .  A
C856        C857   1.403       .  A
C856        H871   1.085       .  S
C857        C858   1.422       .  A
C857        C861   1.444       .  S
C858        C859   1.407       .  A
C859        C860   1.401       .  A
C859        H872   1.084       .  S
C860        C862   1.444       .  S
C861        N865   1.157       .  T
C862        N866   1.157   1_556  T
C863        N868   1.157       .  T
C864        N867   1.157       .  T
C873        C874   1.408       .  A
C873        C878   1.400       .  A
C873        C887   1.444       .  S
C874        C879   1.478       .  S
C874        C875   1.401       .  A
C875        C876   1.399       .  A
C875        H894   1.085       .  S
C876        C877   1.415       .  A
C876        C888   1.444       .  S
C877        C878   1.406       .  A
C878        H893   1.085       .  S
C879        C880   1.404       .  A
C879        C884   1.409       .  A
C880        C881   1.404       .  A
C880        H895   1.084       .  S
C881        C882   1.409       .  A
C881        C885   1.443       .  S
C882        C883   1.400       .  A
C883        C884   1.395       .  A
C883        H896   1.085       .  S
C884        C886   1.445       .  S
C885        N889   1.157       .  T
C886        N890   1.157       .  T
C887        N892   1.157       .  T
C888        N891   1.157       .  T
C897        C898   1.412       .  A
C897        C902   1.406       .  A
C897        C911   1.443       .  S
C898        C903   1.491       .  S
C898        C899   1.403       .  A
C899        C900   1.397       .  A
C899        H918   1.085       .  S
C900        C901   1.412       .  A
C900        C912   1.445       .  S
C901        C902   1.406       .  A
C902        H917   1.084       .  S
C903        C904   1.405       .  A
C903        C908   1.411       .  A
C904        C905   1.405       .  A
C904        H919   1.085       .  S
C905        C906   1.415       .  A
C905        C909   1.444       .  S
C906        C907   1.404       .  A
C907        C908   1.399       .  A
C907        H920   1.085       .  S
C908        C910   1.444       .  S
C909        N913   1.157       .  T
C910        N914   1.157       .  T
C911        N916   1.157       .  T
C912        N915   1.157       .  T
C921        C922   1.408       .  A
C921        C926   1.398       .  A
C921        C935   1.444       .  S
C922        C927   1.480       .  S
C922        C923   1.400       .  A
C923        C924   1.401       .  A
C923        H942   1.085       .  S
C924        C925   1.418       .  A
C924        C936   1.444       .  S
C925        C926   1.406       .  A
C926        H941   1.085       .  S
C927        C928   1.401       .  A
C927        C932   1.408       .  A
C928        C929   1.397       .  A
C928        H943   1.085       .  S
C929        C930   1.413       .  A
C929        C933   1.445       .  S
C930        C931   1.405       .  A
C931        C932   1.403       .  A
C931        H944   1.084       .  S
C932        C934   1.443       .  S
C933        N937   1.157       .  T
C934        N938   1.157       .  T
C935        N940   1.157       .  T
C936        N939   1.157       .  T
C945        C946   1.410       .  A
C945        C950   1.401       .  A
C945        C959   1.444       .  S
C946        C951   1.489       .  S
C946        C947   1.400       .  A
C947        C948   1.402       .  A
C947        H966   1.085       .  S
C948        C949   1.424       .  A
C948        C960   1.445       .  S
C949        C950   1.410       .  A
C950        H965   1.084       .  S
C951        C952   1.405       .  A
C951        C956   1.411       .  A
C952        C953   1.405       .  A
C952        H967   1.085       .  S
C953        C954   1.415       .  A
C953        C957   1.443       .  S
C954        C955   1.406       .  A
C955        C956   1.397       .  A
C955        H968   1.085       .  S
C956        C958   1.445       .  S
C957        N961   1.157       .  T
C958        N962   1.157       .  T
C959        N964   1.157       .  T
C960        N963   1.158       .  T
C969        C970   1.407       .  A
C969        C974   1.401   1_565  A
C969        C983   1.444       .  S
C970        C975   1.490       .  S
C970        C971   1.403       .  A
C971        C972   1.405   1_565  A
C971        H990   1.085       .  S
C972        C973   1.419       .  A
C972        C984   1.443       .  S
C973        C974   1.411       .  A
C974        H989   1.084       .  S
C975        C976   1.405       .  A
C975        C980   1.409       .  A
C976        C977   1.406       .  A
C976        H991   1.085       .  S
C977        C978   1.415       .  A
C977        C981   1.444       .  S
C978        C979   1.407       .  A
C979        C980   1.400       .  A
C979        H992   1.084       .  S
C980        C982   1.444       .  S
C981        N985   1.157       .  T
C982        N986   1.157       .  T
C983        N988   1.157       .  T
C984        N987   1.157       .  T
C993        C994   1.412       .  A
C993        C998   1.409       .  A
C993       C1007   1.443       .  S
C994        C999   1.489       .  S
C994        C995   1.401       .  A
C995        C996   1.397       .  A
C995       H1014   1.085       .  S
C996        C997   1.413       .  A
C996       C1008   1.445       .  S
C997        C998   1.406       .  A
C998       H1013   1.084       .  S
C999       C1000   1.403       .  A
C999       C1004   1.409       .  A
C1000      C1001   1.408       .  A
C1000      H1015   1.085       .  S
C1001      C1002   1.419       .  A
C1001      C1005   1.443       .  S
C1002      C1003   1.408       .  A
C1003      C1004   1.398       .  A
C1003      H1016   1.085       .  S
C1004      C1006   1.445       .  S
C1005      N1009   1.157       .  T
C1006      N1010   1.157       .  T
C1007      N1012   1.157       .  T
C1008      N1011   1.157       .  T
C1017      C1018   1.409       .  A
C1017      C1022   1.402       .  A
C1017      C1031   1.444       .  S
C1018      C1023   1.490       .  S
C1018      C1019   1.400       .  A
C1019      C1020   1.401       .  A
C1019      H1038   1.085       .  S
C1020      C1021   1.424       .  A
C1020      C1032   1.445       .  S
C1021      C1022   1.409       .  A
C1022      H1037   1.078       .  S
C1023      C1024   1.403       .  A
C1023      C1028   1.411       .  A
C1024      C1025   1.404       .  A
C1024      H1039   1.085       .  S
C1025      C1026   1.418       .  A
C1025      C1029   1.444       .  S
C1026      C1027   1.405       .  A
C1027      C1028   1.400       .  A
C1027      H1040   1.085       .  S
C1028      C1030   1.444       .  S
C1029      N1033   1.157       .  T
C1030      N1034   1.157       .  T
C1031      N1036   1.157       .  T
C1032      N1035   1.158       .  T
C1041      C1042   1.408       .  A
C1041      C1046   1.398       .  A
C1041      C1055   1.445       .  S
C1042      C1047   1.485       .  S
C1042      C1043   1.401       .  A
C1043      C1044   1.403       .  A
C1043      H1062   1.085       .  S
C1044      C1045   1.420       .  A
C1044      C1056   1.441       .  S
C1045      C1046   1.413       .  A
C1046      H1061   1.084       .  S
C1047      C1048   1.400       .  A
C1047      C1052   1.410       .  A
C1048      C1049   1.398       .  A
C1048      H1063   1.085       .  S
C1049      C1050   1.418       .  A
C1049      C1053   1.445       .  S
C1050      C1051   1.406       .  A
C1051      C1052   1.402       .  A
C1051      H1064   1.085       .  S
C1052      C1054   1.443       .  S
C1053      N1057   1.157       .  T
C1054      N1058   1.157       .  T
C1055      N1060   1.157       .  T
C1056      N1059   1.157       .  T
C1065      C1066   1.412       .  A
C1065      C1070   1.406       .  A
C1065      C1079   1.443       .  S
C1066      C1071   1.495       .  S
C1066      C1067   1.404       .  A
C1067      C1068   1.398       .  A
C1067      H1086   1.085       .  S
C1068      C1069   1.415       .  A
C1068      C1080   1.445       .  S
C1069      C1070   1.406       .  A
C1070      H1085   1.085       .  S
C1071      C1072   1.407       .  A
C1071      C1076   1.412       .  A
C1072      C1073   1.405       .  A
C1072      H1087   1.084       .  S
C1073      C1074   1.412       .  A
C1073      C1077   1.443       .  S
C1074      C1075   1.405       .  A
C1075      C1076   1.399       .  A
C1075      H1088   1.085       .  S
C1076      C1078   1.445       .  S
C1077      N1081   1.157       .  T
C1078      N1082   1.157       .  T
C1079      N1084   1.157       .  T
C1080      N1083   1.157       .  T
C1089      C1090   1.408       .  A
C1089      C1094   1.398       .  A
C1089      C1103   1.444       .  S
C1090      C1095   1.486       .  S
C1090      C1091   1.404       .  A
C1091      C1092   1.406       .  A
C1091      H1110   1.085       .  S
C1092      C1093   1.414       .  A
C1092      C1104   1.443       .  S
C1093      C1094   1.405       .  A
C1094      H1109   1.085   1_556  S
C1095      C1096   1.403       .  A
C1095      C1100   1.410       .  A
C1096      C1097   1.407       .  A
C1096      H1111   1.085       .  S
C1097      C1098   1.416       .  A
C1097      C1101   1.443       .  S
C1098      C1099   1.405       .  A
C1099      C1100   1.396       .  A
C1099      H1112   1.085       .  S
C1100      C1102   1.445       .  S
C1101      N1105   1.157       .  T
C1102      N1106   1.157       .  T
C1103      N1108   1.157       .  T
C1104      N1107   1.157       .  T
C1113      C1114   1.413       .  A
C1113      C1118   1.403       .  A
C1113      C1127   1.444       .  S
C1114      C1119   1.493       .  S
C1114      C1115   1.402       .  A
C1115      C1116   1.402       .  A
C1115      H1134   1.085       .  S
C1116      C1117   1.421       .  A
C1116      C1128   1.445       .  S
C1117      C1118   1.407       .  A
C1118      H1133   1.084       .  S
C1119      C1120   1.404       .  A
C1119      C1124   1.412       .  A
C1120      C1121   1.405       .  A
C1120      H1135   1.085       .  S
C1121      C1122   1.418       .  A
C1121      C1125   1.444       .  S
C1122      C1123   1.408       .  A
C1123      C1124   1.399       .  A
C1123      H1136   1.084       .  S
C1124      C1126   1.445       .  S
C1125      N1129   1.157       .  T
C1126      N1130   1.157       .  T
C1127      N1132   1.157       .  T
C1128      N1131   1.157       .  T
C1137      C1138   1.407       .  A
C1137      C1142   1.395       .  A
C1137      C1151   1.445       .  S
C1138      C1143   1.481       .  S
C1138      C1139   1.402       .  A
C1139      C1140   1.404       .  A
C1139      H1158   1.085       .  S
C1140      C1141   1.418       .  A
C1140      C1152   1.444       .  S
C1141      C1142   1.406       .  A
C1142      H1157   1.084       .  S
C1143      C1144   1.401       .  A
C1143      C1148   1.410       .  A
C1144      C1145   1.393       .  A
C1144      H1159   1.085       .  S
C1145      C1146   1.410       .  A
C1145      C1149   1.445       .  S
C1146      C1147   1.406       .  A
C1147      C1148   1.406       .  A
C1147      H1160   1.084       .  S
C1148      C1150   1.443       .  S
C1149      N1153   1.157       .  T
C1150      N1154   1.157       .  T
C1151      N1156   1.157       .  T
C1152      N1155   1.157       .  T
C1161      C1162   1.411       .  A
C1161      C1166   1.403       .  A
C1161      C1175   1.444       .  S
C1162      C1167   1.491       .  S
C1162      C1163   1.404       .  A
C1163      C1164   1.401       .  A
C1163      H1182   1.085       .  S
C1164      C1165   1.417       .  A
C1164      C1176   1.445       .  S
C1165      C1166   1.407       .  A
C1166      H1181   1.084       .  S
C1167      C1168   1.405       .  A
C1167      C1172   1.412       .  A
C1168      C1169   1.404   1_556  A
C1168      H1183   1.085   1_556  S
C1169      C1170   1.415   1_554  A
C1169      C1173   1.444       .  S
C1170      C1171   1.405       .  A
C1171      C1172   1.399       .  A
C1171      H1184   1.085       .  S
C1172      C1174   1.444       .  S
C1173      N1177   1.157       .  T
C1174      N1178   1.157       .  T
C1175      N1180   1.157       .  T
C1176      N1179   1.157       .  T
C1185      C1186   1.412       .  A
C1185      C1190   1.406       .  A
C1185      C1199   1.444       .  S
C1186      C1191   1.494       .  S
C1186      C1187   1.402       .  A
C1187      C1188   1.404   1_556  A
C1187      H1206   1.085       .  S
C1188      C1189   1.418   1_554  A
C1188      C1200   1.444       .  S
C1189      C1190   1.406       .  A
C1190      H1205   1.085       .  S
C1191      C1192   1.404       .  A
C1191      C1196   1.411       .  A
C1192      C1193   1.407       .  A
C1192      H1207   1.084       .  S
C1193      C1194   1.417       .  A
C1193      C1197   1.444       .  S
C1194      C1195   1.407       .  A
C1195      C1196   1.403       .  A
C1195      H1208   1.085       .  S
C1196      C1198   1.444       .  S
C1197      N1201   1.157       .  T
C1198      N1202   1.157       .  T
C1199      N1204   1.157       .  T
C1200      N1203   1.157       .  T
C1209      C1210   1.412       .  A
C1209      C1214   1.406       .  A
C1209      C1223   1.443       .  S
C1210      C1215   1.493       .  S
C1210      C1211   1.403       .  A
C1211      C1212   1.401       .  A
C1211      H1230   1.085       .  S
C1212      C1213   1.411       .  A
C1212      C1224   1.440       .  S
C1213      C1214   1.405       .  A
C1214      H1229   1.083       .  S
C1215      C1216   1.405       .  A
C1215      C1220   1.409       .  A
C1216      C1217   1.410       .  A
C1216      H1231   1.084       .  S
C1217      C1218   1.419       .  A
C1217      C1221   1.443       .  S
C1218      C1219   1.410       .  A
C1219      C1220   1.397       .  A
C1219      H1232   1.084   1_556  S
C1220      C1222   1.446       .  S
C1221      N1225   1.157       .  T
C1222      N1226   1.157       .  T
C1223      N1228   1.157       .  T
C1224      N1227   1.156       .  T
C1233      C1234   1.410       .  A
C1233      C1238   1.403       .  A
C1233      C1247   1.444       .  S
C1234      C1239   1.489       .  S
C1234      C1235   1.402       .  A
C1235      C1236   1.400       .  A
C1235      H1254   1.085       .  S
C1236      C1237   1.418       .  A
C1236      C1248   1.444       .  S
C1237      C1238   1.409       .  A
C1238      H1253   1.084       .  S
C1239      C1240   1.403       .  A
C1239      C1244   1.412       .  A
C1240      C1241   1.402   1_565  A
C1240      H1255   1.085       .  S
C1241      C1242   1.414       .  A
C1241      C1245   1.444       .  S
C1242      C1243   1.404       .  A
C1243      C1244   1.402   1_545  A
C1243      H1256   1.084   1_556  S
C1244      C1246   1.444       .  S
C1245      N1249   1.157       .  T
C1246      N1250   1.157       .  T
C1247      N1252   1.157       .  T
C1248      N1251   1.157       .  T
C1257      C1258   1.412       .  A
C1257      C1262   1.404       .  A
C1257      C1271   1.443       .  S
C1258      C1263   1.492       .  S
C1258      C1259   1.402       .  A
C1259      C1260   1.401       .  A
C1259      H1278   1.085       .  S
C1260      C1261   1.418       .  A
C1260      C1272   1.443       .  S
C1261      C1262   1.406       .  A
C1262      H1277   1.085       .  S
C1263      C1264   1.403       .  A
C1263      C1268   1.410       .  A
C1264      C1265   1.405       .  A
C1264      H1279   1.085       .  S
C1265      C1266   1.422       .  A
C1265      C1269   1.444       .  S
C1266      C1267   1.410       .  A
C1267      C1268   1.399       .  A
C1267      H1280   1.084   1_556  S
C1268      C1270   1.445       .  S
C1269      N1273   1.158       .  T
C1270      N1274   1.157   1_556  T
C1271      N1276   1.157       .  T
C1272      N1275   1.157       .  T
C1281      C1282   1.410       .  A
C1281      C1286   1.408       .  A
C1281      C1295   1.443       .  S
C1282      C1287   1.488       .  S
C1282      C1283   1.398       .  A
C1283      C1284   1.397       .  A
C1283      H1302   1.086       .  S
C1284      C1285   1.424       .  A
C1284      C1296   1.446       .  S
C1285      C1286   1.410       .  A
C1286      H1301   1.084       .  S
C1287      C1288   1.404       .  A
C1287      C1292   1.413       .  A
C1288      C1289   1.400       .  A
C1288      H1303   1.085       .  S
C1289      C1290   1.410       .  A
C1289      C1293   1.444       .  S
C1290      C1291   1.403       .  A
C1291      C1292   1.404       .  A
C1291      H1304   1.085       .  S
C1292      C1294   1.443       .  S
C1293      N1297   1.157       .  T
C1294      N1298   1.157       .  T
C1295      N1300   1.157       .  T
C1296      N1299   1.158       .  T
C1305      C1306   1.413       .  A
C1305      C1310   1.400       .  A
C1305      C1319   1.444       .  S
C1306      C1311   1.500       .  S
C1306      C1307   1.406       .  A
C1307      C1308   1.406       .  A
C1307      H1326   1.085       .  S
C1308      C1309   1.420       .  A
C1308      C1320   1.445       .  S
C1309      C1310   1.407       .  A
C1310      H1325   1.085       .  S
C1311      C1312   1.407       .  A
C1311      C1316   1.416       .  A
C1312      C1313   1.399       .  A
C1312      H1327   1.084       .  S
C1313      C1314   1.408       .  A
C1313      C1317   1.444       .  S
C1314      C1315   1.403       .  A
C1315      C1316   1.406       .  A
C1315      H1328   1.085       .  S
C1316      C1318   1.444       .  S
C1317      N1321   1.157       .  T
C1318      N1322   1.157       .  T
C1319      N1324   1.157       .  T
C1320      N1323   1.158       .  T
C1329      C1330   1.411       .  A
C1329      C1334   1.400       .  A
C1329      C1343   1.444       .  S
C1330      C1335   1.496       .  S
C1330      C1331   1.405       .  A
C1331      C1332   1.408       .  A
C1331      H1350   1.085       .  S
C1332      C1333   1.417       .  A
C1332      C1344   1.443       .  S
C1333      C1334   1.407       .  A
C1334      H1349   1.085       .  S
C1335      C1336   1.405       .  A
C1335      C1340   1.412       .  A
C1336      C1337   1.408       .  A
C1336      H1351   1.085       .  S
C1337      C1338   1.417       .  A
C1337      C1341   1.443       .  S
C1338      C1339   1.407       .  A
C1339      C1340   1.400       .  A
C1339      H1352   1.085       .  S
C1340      C1342   1.445       .  S
C1341      N1345   1.157       .  T
C1342      N1346   1.157       .  T
C1343      N1348   1.157       .  T
C1344      N1347   1.157       .  T
C1353      C1354   1.411       .  A
C1353      C1358   1.399       .  A
C1353      C1367   1.445       .  S
C1354      C1359   1.494       .  S
C1354      C1355   1.405       .  A
C1355      C1356   1.406       .  A
C1355      H1374   1.085       .  S
C1356      C1357   1.419       .  A
C1356      C1368   1.444       .  S
C1357      C1358   1.409       .  A
C1358      H1373   1.084       .  S
C1359      C1360   1.399       .  A
C1359      C1364   1.413       .  A
C1360      C1361   1.400       .  A
C1360      H1375   1.085       .  S
C1361      C1362   1.423       .  A
C1361      C1365   1.445       .  S
C1362      C1363   1.408       .  A
C1363      C1364   1.405       .  A
C1363      H1376   1.084       .  S
C1364      C1366   1.444       .  S
C1365      N1369   1.157       .  T
C1366      N1370   1.157       .  T
C1367      N1372   1.157       .  T
C1368      N1371   1.157       .  T
C1377      C1378   1.408       .  A
C1377      C1382   1.400       .  A
C1377      C1391   1.444       .  S
C1378      C1383   1.484       .  S
C1378      C1379   1.401       .  A
C1379      C1380   1.401       .  A
C1379      H1398   1.085       .  S
C1380      C1381   1.420       .  A
C1380      C1392   1.445       .  S
C1381      C1382   1.408       .  A
C1382      H1397   1.085       .  S
C1383      C1384   1.403       .  A
C1383      C1388   1.410       .  A
C1384      C1385   1.400       .  A
C1384      H1399   1.085       .  S
C1385      C1386   1.410       .  A
C1385      C1389   1.444       .  S
C1386      C1387   1.405       .  A
C1387      C1388   1.401       .  A
C1387      H1400   1.085       .  S
C1388      C1390   1.444       .  S
C1389      N1393   1.157       .  T
C1390      N1394   1.157       .  T
C1391      N1396   1.157       .  T
C1392      N1395   1.158       .  T
C1401      C1402   1.408       .  A
C1401      C1406   1.401       .  A
C1401      C1415   1.444       .  S
C1402      C1407   1.484       .  S
C1402      C1403   1.401       .  A
C1403      C1404   1.402       .  A
C1403      H1422   1.085       .  S
C1404      C1405   1.418       .  A
C1404      C1416   1.444       .  S
C1405      C1406   1.408       .  A
C1406      H1421   1.084       .  S
C1407      C1408   1.399       .  A
C1407      C1412   1.409       .  A
C1408      C1409   1.401   1_545  A
C1408      H1423   1.085       .  S
C1409      C1410   1.420       .  A
C1409      C1413   1.444       .  S
C1410      C1411   1.407       .  A
C1411      C1412   1.403   1_565  A
C1411      H1424   1.084       .  S
C1412      C1414   1.444       .  S
C1413      N1417   1.157       .  T
C1414      N1418   1.157       .  T
C1415      N1420   1.157       .  T
C1416      N1419   1.157       .  T
