geometry optimzed in LAMMPS
_audit_creation_date              2020-12-01 
_audit_creation_method            'lammps2cif' 
_symmetry_space_group_name_H-M    'P1' 
_symmetry_Int_Tables_number       1 
_symmetry_cell_setting            triclinic 
loop_ 
_symmetry_equiv_pos_as_xyz 
  x,y,z 
_cell_length_a                    54.38480855 
_cell_length_b                    54.393840032307295 
_cell_length_c                    44.78300473535523 
_cell_angle_alpha                 90.0476435937242 
_cell_angle_beta                  90.03584240251492 
_cell_angle_gamma                 120.44000120280742 
loop_ 
_atom_site_label 
_atom_site_type_symbol 
_atom_site_fract_x 
_atom_site_fract_y 
_atom_site_fract_z 
_atom_site_charge 
O1          O  0.51067879  0.60983464  0.21210018    -0.85600
O2          O  0.56505036  0.62693003  0.23233123    -0.82700
C3          C  0.57885742  0.64500392  0.21231666     0.97800
O4          O  0.57969247  0.66858271  0.21236046    -0.82700
O5          O  0.56191723  0.70735696  0.22143021    -0.85400
C6          C  0.54075761  0.70021555  0.20420863     1.02300
O7          O  0.51717020  0.67792315  0.20917503    -0.78100
O8          O  0.48021661  0.62295758  0.22558675    -0.78300
C9          C  0.48749922  0.60942656  0.20803424     1.02300
O10         O  0.49134362  0.60254838  0.27214759    -0.85600
O11         O  0.54630956  0.62664932  0.29150059    -0.82700
C12         C  0.57216316  0.64495316  0.29585134     0.97800
O13         O  0.58592082  0.66475759  0.27697504    -0.82700
O14         O  0.56480950  0.70067841  0.28522699    -0.85300
C15         C  0.54595681  0.70757329  0.28724265     1.02300
O16         O  0.52460505  0.69655985  0.26993205    -0.78200
O17         O  0.49151661  0.64044308  0.28811017    -0.78300
C18         C  0.48399587  0.61452938  0.29137634     1.02300
Cr19       Cr  0.52886208  0.61904610  0.25179559     1.93700
Cr20       Cr  0.57055217  0.68322743  0.24897768     1.93200
Cr21       Cr  0.50552442  0.65912988  0.24841825     1.39100
O22         O  0.53510954  0.65406699  0.24969823    -1.23400
O23         O  0.37121712  0.48499377  0.02121635    -0.85600
O24         O  0.34660132  0.42964223  0.04077229    -0.82700
C25         C  0.32874030  0.40351459  0.04434412     0.97800
O26         O  0.30865265  0.39011675  0.02562677    -0.82700
O27         O  0.27316224  0.41177826  0.03649519    -0.85400
C28         C  0.26728944  0.43133299  0.03969861     1.02300
O29         O  0.27759259  0.45243377  0.02211409    -0.78100
O30         O  0.33416047  0.48596246  0.03793735    -0.78300
C31         C  0.36014648  0.49341384  0.04030269     1.02300
O32         O  0.36274201  0.46583836  0.46199379    -0.85600
O33         O  0.34492440  0.41131154  0.48191642    -0.82700
C34         C  0.32692641  0.39810777  0.46159285     0.97800
O35         O  0.30321157  0.39704847  0.46234821    -0.82700
O36         O  0.26501321  0.41538728  0.47424596    -0.85300
C37         C  0.27193360  0.43618584  0.45669672     1.02300
O38         O  0.29452914  0.45974359  0.46086605    -0.78200
O39         O  0.35026537  0.49676419  0.47557239    -0.78300
C40         C  0.36375053  0.48933427  0.45816096     1.02300
Cr41       Cr  0.35365408  0.44741928  0.00106222     1.93700
Cr42       Cr  0.28988540  0.40652074  0.50013259     1.93200
Cr43       Cr  0.31391833  0.47123026  0.99899002     1.39100
O44         O  0.31876831  0.44147467  0.99975509    -1.23400
O45         O  0.08368622  0.46199671  0.21436513    -0.85600
O46         O  0.04586554  0.40697612  0.23343533    -0.82700
C47         C  0.04967667  0.39302403  0.21333712     0.97800
O48         O  0.07247238  0.39219701  0.21307073    -0.82700
O49         O  0.12971917  0.41083859  0.22208793    -0.85400
C50         C  0.14416591  0.43238476  0.20548400     1.02300
O51         O  0.14558237  0.45581403  0.21107272    -0.78100
O52         O  0.12757845  0.49230813  0.22827308    -0.78300
C53         C  0.10687138  0.48517495  0.21049578     1.02300
O54         O  0.09518397  0.47986137  0.27510698    -0.85600
O55         O  0.06394691  0.42423784  0.29302523    -0.82700
C56         C  0.05628844  0.39831824  0.29649042     0.97800
O57         O  0.06262910  0.38523485  0.27728936    -0.82700
O58         O  0.12019217  0.40744972  0.28619674    -0.85300
C59         C  0.14601039  0.42679594  0.28879396     1.02300
O60         O  0.15661604  0.44792669  0.27134017    -0.78200
O61         O  0.13332316  0.48013440  0.29043451    -0.78300
C62         C  0.11464303  0.48707101  0.29426887     1.02300
Cr63       Cr  0.07426896  0.44279520  0.25370330     1.93700
Cr64       Cr  0.09679138  0.40154558  0.24970021     1.93200
Cr65       Cr  0.13816305  0.46680619  0.25043826     1.39100
O66         O  0.10318355  0.43691179  0.25114372    -1.23400
O67         O  0.49651889  0.87886968  0.02128136    -0.85600
O68         O  0.55039106  0.90632949  0.04372956    -0.82700
C69         C  0.57591607  0.91350071  0.04888602     0.97800
O70         O  0.59021310  0.90870108  0.02973090    -0.82700
O71         O  0.56628705  0.85101951  0.03561489    -0.85400
C72         C  0.54620906  0.82543898  0.03703582     1.02300
O73         O  0.52617309  0.81571873  0.01800396    -0.78100
O74         O  0.49341791  0.83874485  0.03400577    -0.78300
C75         C  0.48773536  0.85812139  0.03898182     1.02300
O76         O  0.51937512  0.89540320  0.46414576    -0.85600
O77         O  0.57398517  0.92880952  0.48603457    -0.82700
C78         C  0.58645370  0.92445200  0.46471670     0.97800
O79         O  0.58651642  0.90129109  0.46365435    -0.82700
O80         O  0.56649861  0.84368590  0.47091267    -0.85300
C81         C  0.54607941  0.83122678  0.45251966     1.02300
O82         O  0.52286399  0.83057468  0.45697700    -0.78200
O83         O  0.48770306  0.85044581  0.47291449    -0.78300
C84         C  0.49641723  0.87294393  0.45744874     1.02300
Cr85       Cr  0.53516350  0.89991621  0.00312916     1.93700
Cr86       Cr  0.57566010  0.87589710  0.49942656     1.93200
Cr87       Cr  0.50983075  0.83600476  0.99524920     1.39100
O88         O  0.54002639  0.87040508  0.99939845    -1.23400
O89         O  0.87806384  0.37748832  0.01961892    -0.85600
O90         O  0.90611571  0.35091784  0.03998888    -0.82700
C91         C  0.91216460  0.33174868  0.04479905     0.97800
O92         O  0.90483965  0.31144707  0.02627450    -0.82700
O93         O  0.84728019  0.27830490  0.03567048    -0.85400
C94         C  0.82193230  0.27285672  0.03824921     1.02300
O95         O  0.81224566  0.28437584  0.02097343    -0.78100
O96         O  0.83867867  0.34140037  0.03628761    -0.78300
C97         C  0.85836413  0.36703999  0.03872608     1.02300
O98         O  0.88708842  0.36705842  0.46052328    -0.85600
O99         O  0.92228662  0.34756077  0.48122306    -0.82700
C100        C  0.91720079  0.32868060  0.46188025     0.97800
O101        O  0.89343583  0.30579947  0.46189752    -0.82700
O102        O  0.83594333  0.26885543  0.47223851    -0.85300
C103        C  0.82209305  0.27601699  0.45504861     1.02300
O104        O  0.82228850  0.29904723  0.45912486    -0.78200
O105        O  0.84336722  0.35502625  0.47315879    -0.78300
C106        C  0.86476647  0.36827910  0.45599927     1.02300
Cr107      Cr  0.89663750  0.35832099  0.99989063     1.93700
Cr108      Cr  0.86971856  0.29291401  0.49879108     1.93200
Cr109      Cr  0.83214480  0.32076747  0.99762895     1.39100
O110        O  0.86615163  0.32399292  0.99874147    -1.23400
O111        O  0.60679809  0.08547253  0.21112167    -0.85600
O112        O  0.62510742  0.04971980  0.23266249    -0.82700
C113        C  0.64341534  0.05367577  0.21314226     0.97800
O114        O  0.66679702  0.07696512  0.21249292    -0.82700
O115        O  0.70461471  0.13465567  0.22083383    -0.85400
C116        C  0.69715569  0.14807178  0.20327715     1.02300
O117        O  0.67468572  0.14877567  0.20808205    -0.78100
O118        O  0.61951194  0.12935895  0.22367308    -0.78300
C119        C  0.60613369  0.10804694  0.20646319     1.02300
O120        O  0.59903221  0.09789137  0.27079205    -0.85600
O121        O  0.62431340  0.06847818  0.29134164    -0.82700
C122        C  0.64265060  0.06114313  0.29553716     0.97800
O123        O  0.66265823  0.06786290  0.27683560    -0.82700
O124        O  0.69706816  0.12543061  0.28491030    -0.85300
C125        C  0.70270817  0.15084752  0.28731660     1.02300
O126        O  0.69254119  0.16097825  0.26892411    -0.78200
O127        O  0.63634945  0.13681631  0.28639583    -0.78300
C128        C  0.61044370  0.11798039  0.28943707     1.02300
Cr129      Cr  0.61636815  0.07751304  0.25123503     1.93700
Cr130      Cr  0.68071679  0.10172899  0.24868013     1.93200
Cr131      Cr  0.65551207  0.14148282  0.24700030     1.39100
O132        O  0.65111363  0.10703406  0.24881681    -1.23400
O133        O  0.89496025  0.51827987  0.21027097    -0.85600
O134        O  0.93371486  0.57227173  0.23114206    -0.82700
C135        C  0.93039842  0.58757464  0.21234448     0.97800
O136        O  0.90763478  0.58839029  0.21225120    -0.82700
O137        O  0.85068227  0.57083483  0.22111916    -0.85400
C138        C  0.83584376  0.54964623  0.20406610     1.02300
O139        O  0.83394663  0.52594365  0.20902519    -0.78100
O140        O  0.85082932  0.48826116  0.22352928    -0.78300
C141        C  0.87157672  0.49551377  0.20575507     1.02300
O142        O  0.88308313  0.49831085  0.27041541    -0.85600
O143        O  0.91545893  0.55320809  0.28999633    -0.82700
C144        C  0.92388668  0.57916060  0.29452379     0.97800
O145        O  0.91766042  0.59320565  0.27643030    -0.82700
O146        O  0.86034676  0.57268699  0.28537944    -0.85300
C147        C  0.83441432  0.55370837  0.28784540     1.02300
O148        O  0.82354257  0.53261700  0.27018184    -0.78200
O149        O  0.84555780  0.49868542  0.28667937    -0.78300
C150        C  0.86372394  0.49097569  0.28971749     1.02300
Cr151      Cr  0.90468961  0.53604947  0.25023689     1.93700
Cr152      Cr  0.88348330  0.57859070  0.24874276     1.93200
Cr153      Cr  0.84107842  0.51357379  0.24757531     1.39100
O154        O  0.87631186  0.54289738  0.24880435    -1.23400
O155        O  0.47958115  0.09710121  0.01956606    -0.85600
O156        O  0.42442786  0.06830221  0.03843759    -0.82700
C157        C  0.39913053  0.06208509  0.04337322     0.97800
O158        O  0.38625918  0.06983673  0.02531159    -0.82700
O159        O  0.41161770  0.12728248  0.03687388    -0.85400
C160        C  0.43220219  0.15237689  0.04041506     1.02300
O161        O  0.45293515  0.16268719  0.02232592    -0.78100
O162        O  0.48277465  0.13604521  0.03693045    -0.78300
C163        C  0.48854620  0.11641529  0.03918922     1.02300
O164        O  0.46014668  0.08833423  0.45920787    -0.85600
O165        O  0.40455531  0.05253415  0.47850891    -0.82700
C166        C  0.39220276  0.05918373  0.45902323     0.97800
O167        O  0.39314569  0.08278287  0.46085676    -0.82700
O168        O  0.41444872  0.13963771  0.47357528    -0.85300
C169        C  0.43553168  0.15321352  0.45616934     1.02300
O170        O  0.45836267  0.15297025  0.46036069    -0.78200
O171        O  0.49257188  0.13115756  0.47415162    -0.78300
C172        C  0.48413739  0.11070703  0.45574699     1.02300
Cr173      Cr  0.44190204  0.07891353  0.99883209     1.93700
Cr174      Cr  0.40366939  0.10499006  0.49902006     1.93200
Cr175      Cr  0.46945409  0.14339629  0.99840897     1.39100
O176        O  0.43834000  0.10936424  0.99872283    -1.23400
O177        O  0.60766153  0.49550823  0.01979709    -0.85600
O178        O  0.63192720  0.55008610  0.04174363    -0.82700
C179        C  0.64948087  0.57614780  0.04623386     0.97800
O180        O  0.66948818  0.59050592  0.02776486    -0.82700
O181        O  0.70616005  0.57004948  0.03558612    -0.85400
C182        C  0.71219918  0.55058562  0.03815133     1.02300
O183        O  0.70174926  0.52965596  0.02027152    -0.78100
O184        O  0.64512765  0.49506244  0.03591352    -0.78300
C185        C  0.61894980  0.48686486  0.03840633     1.02300
O186        O  0.61676234  0.51802371  0.46011934    -0.85600
O187        O  0.63227960  0.57094611  0.48382130    -0.82700
C188        C  0.64983886  0.58548238  0.46373660     0.97800
O189        O  0.67383298  0.58713196  0.46310801    -0.82700
O190        O  0.71443740  0.57110550  0.47097994    -0.85300
C191        C  0.70847713  0.55050112  0.45336289     1.02300
O192        O  0.68685173  0.52626007  0.45790795    -0.78200
O193        O  0.63136597  0.48805900  0.47091860    -0.78300
C194        C  0.61727633  0.49553605  0.45439751     1.02300
Cr195      Cr  0.62476722  0.53394325  0.00136070     1.93700
Cr196      Cr  0.68890099  0.57729845  0.49915313     1.93200
Cr197      Cr  0.66534191  0.51127972  0.99704165     1.39100
O198        O  0.65995421  0.54063582  0.99923646    -1.23400
O199        O  0.46722623  0.37019999  0.20963921    -0.85600
O200        O  0.41214086  0.35244488  0.22845949    -0.82700
C201        C  0.39734135  0.33275307  0.21016017     0.97800
O202        O  0.39698322  0.30940226  0.21168116    -0.82700
O203        O  0.41654218  0.27217678  0.22385523    -0.85400
C204        C  0.43765292  0.27884712  0.20675616     1.02300
O205        O  0.46081434  0.30194909  0.21053148    -0.78100
O206        O  0.49792248  0.35795843  0.22458326    -0.78300
C207        C  0.49067937  0.37096065  0.20630981     1.02300
O208        O  0.48561890  0.37994951  0.27054734    -0.85600
O209        O  0.43011534  0.35582353  0.28847876    -0.82700
C210        C  0.40428647  0.33745442  0.29300282     0.97800
O211        O  0.39111338  0.31628349  0.27548045    -0.82700
O212        O  0.41426737  0.28213765  0.28717275    -0.85300
C213        C  0.43361047  0.27593091  0.28992028     1.02300
O214        O  0.45446604  0.28623010  0.27201740    -0.78200
O215        O  0.48722448  0.34307110  0.28722011    -0.78300
C216        C  0.49428514  0.36892476  0.28956602     1.03500
Cr217      Cr  0.44831631  0.36194511  0.24916973     1.93700
Cr218      Cr  0.40741420  0.29725136  0.24947345     1.93200
Cr219      Cr  0.47275685  0.32259339  0.24868500     1.39100
O220        O  0.44270880  0.32707193  0.24912257    -1.23400
O221        O  0.10217111  0.60269520  0.02356894    -0.85600
O222        O  0.07459196  0.63018600  0.04318891    -0.82700
C223        C  0.06808752  0.64919354  0.04667838     0.97800
O224        O  0.07441494  0.66826370  0.02694770    -0.82700
O225        O  0.13160701  0.70244005  0.03596155    -0.85400
C226        C  0.15666752  0.70739622  0.03980670     1.02300
O227        O  0.16677271  0.69577301  0.02324303    -0.78100
O228        O  0.14126653  0.63925988  0.03980468    -0.78300
C229        C  0.12196010  0.61350130  0.04253616     1.02300
O230        O  0.09046766  0.61040095  0.46456395    -0.85600
O231        O  0.05571889  0.63081578  0.48379286    -0.82700
C232        C  0.06104109  0.64872119  0.46331618     0.97800
O233        O  0.08482122  0.67152532  0.46286306    -0.82700
O234        O  0.14208487  0.70853289  0.47241118    -0.85300
C235        C  0.15592753  0.70067366  0.45607602     1.02300
O236        O  0.15613976  0.67810547  0.46186017    -0.78200
O237        O  0.13415371  0.62243437  0.47758697    -0.78300
C238        C  0.11260766  0.60875244  0.46065352     1.02300
Cr239      Cr  0.08316415  0.62114545  0.00346807     1.93700
Cr240      Cr  0.10855704  0.68567900  0.49964131     1.93200
Cr241      Cr  0.14749057  0.65907024  0.00045844     1.39100
O242        O  0.11336198  0.65552240  0.00094071    -1.23400
O243        O  0.38196650  0.88737500  0.22469122    -0.85600
O244        O  0.35359331  0.91550971  0.20968725    -0.82700
C245        C  0.33470526  0.92230788  0.20783159     0.97800
O246        O  0.31368951  0.91188255  0.22572735    -0.82700
O247        O  0.28142971  0.85459708  0.21297649    -0.85400
C248        C  0.27780922  0.83020897  0.20769240     1.02300
O249        O  0.28969163  0.81986882  0.22353618    -0.78100
O250        O  0.34621918  0.84659417  0.21000679    -0.78300
C251        C  0.37174115  0.86621316  0.20720865     1.02300
O252        O  0.37317103  0.89455599  0.28606098    -0.85600
O253        O  0.35120038  0.92873302  0.27089453    -0.82700
C254        C  0.33212220  0.92124201  0.29061875     0.97800
O255        O  0.30984902  0.89705342  0.28910766    -0.82700
O256        O  0.27362206  0.84046768  0.27521492    -0.85300
C257        C  0.28065584  0.82552291  0.29070603     1.02300
O258        O  0.30396139  0.82648401  0.28607582    -0.78200
O259        O  0.36079193  0.85082919  0.27284414    -0.78300
C260        C  0.37469670  0.87239002  0.28965881     1.02300
Cr261      Cr  0.36216609  0.90394950  0.24788537     1.93700
Cr262      Cr  0.29709696  0.87578689  0.25067743     1.93200
Cr263      Cr  0.32535406  0.83868401  0.24819302     1.39100
O264        O  0.32804280  0.87259721  0.24883913    -1.23400
C265        C  0.24633357  0.74065372  0.35546571    -0.18100
C266        C  0.22856380  0.72302594  0.37823206    -0.20300
C267        C  0.20904547  0.72898400  0.39216492     0.20400
C268        C  0.20699169  0.75260019  0.38271192    -0.03200
C269        C  0.22471618  0.77022133  0.35946614    -0.06300
C270        C  0.24473450  0.76441927  0.34607443     0.20600
C271        C  0.22263716  0.79381495  0.34989727     0.18800
C272        C  0.20281701  0.79950094  0.36357854    -0.17800
C273        C  0.18549492  0.78223758  0.38684763    -0.20000
C274        C  0.18751394  0.75882971  0.39671988     0.20300
C275        C  0.17067415  0.74175646  0.42053829    -0.33000
C276        C  0.17288144  0.71835132  0.43034349     0.01000
C277        C  0.19187689  0.71195272  0.41566732    -0.24300
C278        C  0.26295961  0.78261134  0.32372789    -0.28900
C279        C  0.26113394  0.80629111  0.31414795     0.06700
C280        C  0.24062355  0.81149173  0.32708614    -0.27600
H281        H  0.26145578  0.73578700  0.34531470     0.11400
H282        H  0.23033313  0.70490865  0.38519232     0.12500
H283        H  0.20091657  0.81750773  0.35649064     0.11600
H284        H  0.17060622  0.78729696  0.39723627     0.10800
H285        H  0.15596713  0.74675805  0.43148759     0.16200
H286        H  0.19377718  0.69397563  0.42291487     0.12100
H287        H  0.27846852  0.77823668  0.31364731     0.15000
H288        H  0.23909107  0.82968499  0.31985680     0.14800
C289        C  0.24686831  0.75359436  0.09620506    -0.18100
C290        C  0.26364051  0.77045852  0.11989137    -0.20300
C291        C  0.25335128  0.78347987  0.13921625     0.20400
C292        C  0.22602872  0.77982602  0.13447436    -0.03200
C293        C  0.20893879  0.76249082  0.11073318    -0.06300
C294        C  0.21946578  0.74932117  0.09159987     0.20600
C295        C  0.18130923  0.75813434  0.10631004     0.18800
C296        C  0.17119872  0.77150964  0.12548837    -0.17800
C297        C  0.18831011  0.78902877  0.14883157    -0.20000
C298        C  0.21573261  0.79327246  0.15358233     0.20300
C299        C  0.23297730  0.81042457  0.17721629    -0.33000
C300        C  0.25986065  0.81337745  0.18238746     0.01000
C301        C  0.26987214  0.79989799  0.16333936    -0.24300
C302        C  0.20237661  0.73184869  0.06833118    -0.28900
C303        C  0.17467711  0.72700805  0.06387397     0.06700
C304        C  0.16428515  0.74033210  0.08294310    -0.27600
H305        H  0.25524187  0.74366071  0.08163427     0.11400
H306        H  0.28464196  0.77322763  0.12317317     0.12500
H307        H  0.15004449  0.76841084  0.12244582     0.11600
H308        H  0.18000721  0.79908949  0.16331210     0.10800
H309        H  0.22526051  0.82081320  0.19202988     0.16200
H310        H  0.29075299  0.80248160  0.16718955     0.12100
H311        H  0.21062546  0.72170471  0.05387667     0.15000
H312        H  0.14294628  0.73672742  0.07975034     0.14800
C313        C  0.58450416  0.40961860  0.39118399    -0.18100
C314        C  0.56700748  0.39158695  0.36837324    -0.20300
C315        C  0.54865826  0.39804719  0.35263370     0.20400
C316        C  0.54813415  0.42307166  0.35986095    -0.03200
C317        C  0.56569656  0.44118864  0.38287594    -0.06300
C318        C  0.58392221  0.43440141  0.39867219     0.20600
C319        C  0.56487517  0.46602025  0.39015290     0.18800
C320        C  0.54665902  0.47259737  0.37440842    -0.17800
C321        C  0.52935249  0.45472716  0.35156845    -0.20000
C322        C  0.52996653  0.42998530  0.34417776     0.20300
C323        C  0.51264016  0.41205084  0.32136839    -0.33000
C324        C  0.51287367  0.38703714  0.31401644     0.01000
C325        C  0.53082250  0.38001238  0.32983129    -0.24300
C326        C  0.60104683  0.45240940  0.42179511    -0.28900
C327        C  0.60013690  0.47709879  0.42929207     0.06700
C328        C  0.58210599  0.48378620  0.41318777    -0.27600
H329        H  0.59840960  0.40411315  0.40306064     0.11400
H330        H  0.56778290  0.37254752  0.36309033     0.12500
H331        H  0.54577123  0.49156260  0.37978470     0.11600
H332        H  0.51543767  0.46023456  0.33970712     0.10800
H333        H  0.49867029  0.41748364  0.30946518     0.16200
H334        H  0.53115380  0.36080219  0.32416217     0.12100
H335        H  0.61490957  0.44708706  0.43405918     0.15000
H336        H  0.58119011  0.50270467  0.41878501     0.14800
C337        C  0.58661745  0.42032458  0.15904037    -0.18100
C338        C  0.60460992  0.43614723  0.13538411    -0.20300
C339        C  0.59379039  0.44343473  0.11058069     0.20400
C340        C  0.56444542  0.43452658  0.10972640    -0.03200
C341        C  0.54636896  0.41883893  0.13369824    -0.06300
C342        C  0.55746720  0.41160627  0.15844886     0.20600
C343        C  0.51719398  0.41052331  0.13290523     0.18800
C344        C  0.50625801  0.41757883  0.10811520    -0.17800
C345        C  0.52404938  0.43284567  0.08432719    -0.20000
C346        C  0.55313172  0.44151162  0.08503311     0.20300
C347        C  0.57110502  0.45752498  0.06163370    -0.33000
C348        C  0.60057578  0.46733063  0.06245217     0.01000
C349        C  0.61175472  0.45984363  0.08689673    -0.24300
C350        C  0.53920151  0.39583374  0.18209977    -0.28900
C351        C  0.51007436  0.38761847  0.18147908     0.06700
C352        C  0.49937904  0.39524882  0.15683466    -0.27600
H353        H  0.59554538  0.41501185  0.17788485     0.11400
H354        H  0.62702667  0.44275392  0.13654102     0.12500
H355        H  0.48391451  0.41129712  0.10712230     0.11600
H356        H  0.51509637  0.43810963  0.06546225     0.10800
H357        H  0.56205314  0.46292149  0.04294734     0.16200
H358        H  0.63438148  0.46729210  0.08782353     0.12100
H359        H  0.54770410  0.39020113  0.20109416     0.15000
H360        H  0.47700519  0.38892624  0.15605885     0.14800
C361        C  0.34042950  0.96038961  0.42185913    -0.18100
C362        C  0.33192557  0.94093004  0.39820324    -0.20300
C363        C  0.33661650  0.95051511  0.36853378     0.20400
C364        C  0.34932546  0.98000416  0.36265556    -0.03200
C365        C  0.35739028  0.99962723  0.38656666    -0.06300
C366        C  0.35344390  0.98975760  0.41627666     0.20600
C367        C  0.37030395  0.02915255  0.38075801     0.18800
C368        C  0.37464352  0.03868208  0.35104834    -0.17800
C369        C  0.36711760  0.01928929  0.32737554    -0.20000
C370        C  0.35480330  0.98996784  0.33294527     0.20300
C371        C  0.34858113  0.97052064  0.30943841    -0.33000
C372        C  0.33621287  0.94116626  0.31518654     0.01000
C373        C  0.32963956  0.93123570  0.34470965    -0.24300
C374        C  0.36356823  0.00946300  0.43986489    -0.28900
C375        C  0.37720851  0.03893717  0.43429757     0.06700
C376        C  0.37971510  0.04863625  0.40472948    -0.27600
H377        H  0.33717967  0.95247981  0.44456457     0.11400
H378        H  0.32223802  0.91840658  0.40313451     0.12500
H379        H  0.38449377  0.06121928  0.34612433     0.11600
H380        H  0.37129641  0.02728623  0.30468327     0.10800
H381        H  0.35355810  0.97820078  0.28664276     0.16200
H382        H  0.32036507  0.90865864  0.34920261     0.12100
H383        H  0.36160432  0.00192103  0.46263957     0.15000
H384        H  0.39058088  0.07135173  0.40032645     0.14800
C385        C  0.39980373  0.01737927  0.16885170    -0.18100
C386        C  0.40879571  0.03729588  0.14577325    -0.20300
C387        C  0.39156922  0.03206861  0.12051890     0.20400
C388        C  0.36452356  0.00706706  0.11889373    -0.03200
C389        C  0.35541423  0.98689570  0.14226389    -0.06300
C390        C  0.37345158  0.99194539  0.16701788     0.20600
C391        C  0.32888056  0.96121381  0.14030632     0.18800
C392        C  0.31142571  0.95642540  0.11526198    -0.17800
C393        C  0.32049087  0.97645346  0.09203177    -0.20000
C394        C  0.34718672  0.00167275  0.09338906     0.20300
C395        C  0.35750052  0.02093041  0.06921688    -0.33000
C396        C  0.38512498  0.04499138  0.07024566     0.01000
C397        C  0.40158635  0.05078074  0.09627574    -0.24300
C398        C  0.36542904  0.97099372  0.18894101    -0.28900
C399        C  0.33961161  0.94504117  0.18670333     0.06700
C400        C  0.32094055  0.94041829  0.16283199    -0.27600
H401        H  0.41377975  0.02155386  0.18781300     0.11400
H402        H  0.42956964  0.05646878  0.14732670     0.12500
H403        H  0.29100650  0.93689207  0.11332846     0.11600
H404        H  0.30687351  0.97190900  0.07268487     0.10800
H405        H  0.34490245  0.01628848  0.04901917     0.16200
H406        H  0.42286684  0.06938479  0.09710235     0.12100
H407        H  0.37974913  0.97444882  0.20742558     0.15000
H408        H  0.30112576  0.92021720  0.16102797     0.14800
C409        C  0.38708177  0.18653559  0.15167695    -0.18100
C410        C  0.38641716  0.16881582  0.12852068    -0.20300
C411        C  0.40965822  0.17805738  0.10897106     0.20400
C412        C  0.43392882  0.20532872  0.11309917    -0.03200
C413        C  0.43461965  0.22316598  0.13646640    -0.06300
C414        C  0.41102015  0.21384061  0.15576794     0.20600
C415        C  0.45890930  0.25041997  0.14034995     0.18800
C416        C  0.48234694  0.25955008  0.12120669    -0.17800
C417        C  0.48164774  0.24195289  0.09810268    -0.20000
C418        C  0.45750157  0.21491709  0.09376216     0.20300
C419        C  0.45656199  0.19744878  0.07027396    -0.33000
C420        C  0.43239477  0.17032555  0.06561843     0.01000
C421        C  0.40905442  0.16066736  0.08529455    -0.24300
C422        C  0.41181169  0.23201879  0.17868702    -0.28900
C423        C  0.43598812  0.25936373  0.18251263     0.06700
C424        C  0.45941563  0.26820938  0.16321298    -0.27600
H425        H  0.36880052  0.17891884  0.16631065     0.11400
H426        H  0.36762391  0.14791617  0.12579925     0.12500
H427        H  0.50119736  0.28040341  0.12400048     0.11600
H428        H  0.49996000  0.24956485  0.08350878     0.10800
H429        H  0.47480186  0.20509268  0.05555132     0.16200
H430        H  0.39039006  0.13974649  0.08209878     0.12100
H431        H  0.39371699  0.22486979  0.19352032     0.15000
H432        H  0.47822257  0.28913016  0.16587854     0.14800
C433        C  0.47624711  0.22591224  0.34082360    -0.18100
C434        C  0.47661546  0.20893552  0.36401913    -0.20300
C435        C  0.45486170  0.19772802  0.38549090     0.20400
C436        C  0.43227599  0.20334293  0.38336424    -0.03200
C437        C  0.43194022  0.22058842  0.35992314    -0.06300
C438        C  0.45413993  0.23201629  0.33871635     0.20600
C439        C  0.40962287  0.22663890  0.35789974     0.18800
C440        C  0.38762600  0.21498482  0.37916878    -0.17800
C441        C  0.38791325  0.19781605  0.40236532    -0.20000
C442        C  0.41022920  0.19199344  0.40479129     0.20300
C443        C  0.41107700  0.17530194  0.42836645    -0.33000
C444        C  0.43385924  0.17004498  0.43090736     0.01000
C445        C  0.45551917  0.18123726  0.40916895    -0.24300
C446        C  0.45411191  0.24962458  0.31592060    -0.28900
C447        C  0.43226205  0.25626148  0.31384010     0.06700
C448        C  0.40990371  0.24444508  0.33486732    -0.27600
H449        H  0.49340950  0.23447278  0.32464535     0.11400
H450        H  0.49405021  0.20473021  0.36527747     0.12500
H451        H  0.37026209  0.21929538  0.37798028     0.11600
H452        H  0.37076219  0.18925749  0.41855362     0.10800
H453        H  0.39424766  0.16677936  0.44493502     0.16200
H454        H  0.47304705  0.17717319  0.41066957     0.12100
H455        H  0.47142866  0.25843132  0.29990892     0.15000
H456        H  0.39291739  0.24930939  0.33350886     0.14800
C457        C  0.96708228  0.58126692  0.42173091    -0.18100
C458        C  0.94801940  0.57123800  0.39782116    -0.20300
C459        C  0.95404004  0.58749933  0.37173470     0.20400
C460        C  0.97915056  0.61443929  0.36984509    -0.03200
C461        C  0.99861003  0.62440646  0.39387795    -0.06300
C462        C  0.99257827  0.60754911  0.41974286     0.20600
C463        C  0.02443706  0.65072352  0.39167111     0.18800
C464        C  0.03003113  0.66725553  0.36575543    -0.17800
C465        C  0.01055738  0.65748388  0.34197135    -0.20000
C466        C  0.98520936  0.63094834  0.34363130     0.20300
C467        C  0.96621775  0.62014562  0.31931221    -0.33000
C468        C  0.94182367  0.59281023  0.32087491     0.01000
C469        C  0.93573576  0.57684313  0.34720825    -0.24300
C470        C  0.01258121  0.61665588  0.44279035    -0.28900
C471        C  0.03901571  0.64209746  0.44027484     0.06700
C472        C  0.04455321  0.65946457  0.41496119    -0.27600
H473        H  0.96219988  0.56814918  0.44151715     0.11400
H474        H  0.92875537  0.55056544  0.39956500     0.12500
H475        H  0.04968306  0.68754061  0.36368005     0.11600
H476        H  0.01557842  0.67044769  0.32205063     0.10800
H477        H  0.97106781  0.63228664  0.29878604     0.16200
H478        H  0.91687750  0.55576579  0.34836217     0.12100
H479        H  0.00790118  0.60320962  0.46229575     0.15000
H480        H  0.06480473  0.67917625  0.41291625     0.14800
C481        C  0.04590600  0.62502038  0.15243996    -0.18100
C482        C  0.02650686  0.61667203  0.17600838    -0.20300
C483        C  0.00101674  0.61700797  0.17269002     0.20400
C484        C  0.99568998  0.62735983  0.14608232    -0.03200
C485        C  0.01544345  0.63612333  0.12241277    -0.06300
C486        C  0.04019280  0.63406775  0.12534833     0.20600
C487        C  0.00971112  0.64552540  0.09530789     0.18800
C488        C  0.98480456  0.64704416  0.09256635    -0.17800
C489        C  0.96507047  0.63808115  0.11596735    -0.20000
C490        C  0.96999416  0.62760162  0.14255679     0.20300
C491        C  0.94912101  0.61604329  0.16503462    -0.33000
C492        C  0.95364244  0.60406922  0.19076910     0.01000
C493        C  0.98013687  0.60575977  0.19491175    -0.24300
C494        C  0.05805345  0.63975441  0.10069427    -0.28900
C495        C  0.05175117  0.64787998  0.07331826     0.06700
C496        C  0.02824644  0.65184108  0.07099593    -0.27600
H497        H  0.06496901  0.62362509  0.15510337     0.11400
H498        H  0.03095933  0.60898259  0.19644633     0.12500
H499        H  0.98014464  0.65432101  0.07196750     0.11600
H500        H  0.94557755  0.63861224  0.11294595     0.10800
H501        H  0.92888188  0.61505278  0.16181155     0.16200
H502        H  0.98407737  0.59707643  0.21493017     0.12100
H503        H  0.07640210  0.63698336  0.10246053     0.15000
H504        H  0.02339650  0.65800969  0.04976914     0.14800
C505        C  0.79951814  0.60141001  0.14310506    -0.18100
C506        C  0.78187883  0.60134943  0.12017574    -0.20300
C507        C  0.76566261  0.57686688  0.10264139     0.20400
C508        C  0.76745649  0.55228595  0.10821183    -0.03200
C509        C  0.78517057  0.55232395  0.13136476    -0.06300
C510        C  0.80124051  0.57695720  0.14902688     0.20600
C511        C  0.78657172  0.52756884  0.13695739     0.18800
C512        C  0.77053738  0.50311684  0.11943226    -0.17800
C513        C  0.75309548  0.50309587  0.09653954    -0.20000
C514        C  0.75139688  0.52753141  0.09078778     0.20300
C515        C  0.73378040  0.52748406  0.06796367    -0.33000
C516        C  0.73163240  0.55176047  0.06219859     0.01000
C517        C  0.74763839  0.57642752  0.07974158    -0.24300
C518        C  0.81836859  0.57649725  0.17247357    -0.28900
C519        C  0.81944159  0.55160637  0.17845058     0.06700
C520        C  0.80367013  0.52743766  0.16021098    -0.27600
H521        H  0.81167941  0.62054785  0.15634199     0.11400
H522        H  0.78085778  0.62046276  0.11622082     0.12500
H523        H  0.77139012  0.48392547  0.12351867     0.11600
H524        H  0.74085532  0.48391508  0.08337610     0.10800
H525        H  0.72144013  0.50827254  0.05484952     0.16200
H526        H  0.74614774  0.59525244  0.07553799     0.12100
H527        H  0.83042435  0.59525831  0.18628218     0.15000
H528        H  0.80431550  0.50813085  0.16432443     0.14800
C529        C  0.72221788  0.51451093  0.35747571    -0.18100
C530        C  0.73981109  0.51480295  0.33460113    -0.20300
C531        C  0.76888115  0.53559440  0.33413607     0.20400
C532        C  0.78028348  0.55667354  0.35661104    -0.03200
C533        C  0.76242293  0.55643936  0.37974390    -0.06300
C534        C  0.73336379  0.53502252  0.38028234     0.20600
C535        C  0.77370181  0.57722966  0.40256791     0.18800
C536        C  0.80275260  0.59831468  0.40170685    -0.17800
C537        C  0.82048829  0.59848243  0.37881775    -0.20000
C538        C  0.80953991  0.57763187  0.35623424     0.20300
C539        C  0.82727446  0.57706628  0.33353874    -0.33000
C540        C  0.81603221  0.55572162  0.31127332     0.01000
C541        C  0.78670971  0.53530551  0.31175302    -0.24300
C542        C  0.71601094  0.53399352  0.40393557    -0.28900
C543        C  0.72706631  0.55405892  0.42732579     0.06700
C544        C  0.75587881  0.57608684  0.42612719    -0.27600
H545        H  0.69991210  0.49798911  0.35751981     0.11400
H546        H  0.73072542  0.49853189  0.31743378     0.12500
H547        H  0.81185794  0.61449262  0.41895882     0.11600
H548        H  0.84285872  0.61481254  0.37893427     0.10800
H549        H  0.84980898  0.59292803  0.33347683     0.16200
H550        H  0.77765472  0.51881900  0.29478806     0.12100
H551        H  0.69381434  0.51715227  0.40434779     0.15000
H552        H  0.76464384  0.59167099  0.44398459     0.14800
C553        C  0.49980866  0.07201648  0.36282714    -0.18100
C554        C  0.51755802  0.07320479  0.33971271    -0.20300
C555        C  0.54603120  0.09546639  0.33847835     0.20400
C556        C  0.55685165  0.11682709  0.36059789    -0.03200
C557        C  0.53888186  0.11564078  0.38396475    -0.06300
C558        C  0.51026613  0.09306281  0.38506546     0.20600
C559        C  0.54953582  0.13690999  0.40623257     0.18800
C560        C  0.57808071  0.15917659  0.40489763    -0.17800
C561        C  0.59594715  0.16030814  0.38172246    -0.20000
C562        C  0.58557639  0.13923063  0.35942511     0.20300
C563        C  0.60332100  0.14000403  0.33606777    -0.33000
C564        C  0.59250764  0.11862824  0.31397028     0.01000
C565        C  0.56381330  0.09654655  0.31547260    -0.24300
C566        C  0.49258042  0.09175635  0.40844366    -0.28900
C567        C  0.50298107  0.11272283  0.43085335     0.06700
C568        C  0.53148344  0.13538766  0.42948973    -0.27600
H569        H  0.47790456  0.05457862  0.36335245     0.11400
H570        H  0.50901777  0.05665045  0.32280825     0.12500
H571        H  0.58662236  0.17568597  0.42184208     0.11600
H572        H  0.61788896  0.17765949  0.38126391     0.10800
H573        H  0.62540942  0.15702405  0.33518358     0.16200
H574        H  0.55514209  0.07984386  0.29871442     0.12100
H575        H  0.47065843  0.07433202  0.40917751     0.15000
H576        H  0.53973209  0.15167403  0.44668555     0.14800
C577        C  0.52988744  0.06706195  0.09342750    -0.18100
C578        C  0.54635556  0.06582957  0.11669620    -0.20300
C579        C  0.55924779  0.08811000  0.13752548     0.20400
C580        C  0.55540415  0.11182896  0.13497720    -0.03200
C581        C  0.53869534  0.11303303  0.11153528    -0.06300
C582        C  0.52603364  0.09058981  0.09063166     0.20600
C583        C  0.53474439  0.13669379  0.10897036     0.18800
C584        C  0.54747277  0.15886411  0.12997135    -0.17800
C585        C  0.56415717  0.15773760  0.15314275    -0.20000
C586        C  0.56828904  0.13435426  0.15578640     0.20300
C587        C  0.58501283  0.13306669  0.17890132    -0.33000
C588        C  0.58883972  0.10941516  0.18168034     0.01000
C589        C  0.57587548  0.08704151  0.16085243    -0.24300
C590        C  0.50982400  0.09206506  0.06718753    -0.28900
C591        C  0.50594166  0.11565320  0.06422094     0.06700
C592        C  0.51828206  0.13780793  0.08538263    -0.27600
H593        H  0.52021711  0.04963139  0.07755673     0.11400
H594        H  0.54906088  0.04746099  0.11835997     0.12500
H595        H  0.54463570  0.17715588  0.12839880     0.11600
H596        H  0.57384647  0.17517489  0.16900139     0.10800
H597        H  0.59485966  0.15041477  0.19486697     0.16200
H598        H  0.57875359  0.06878191  0.16273801     0.12100
H599        H  0.50017583  0.07470243  0.05121743     0.15000
H600        H  0.51524162  0.15595815  0.08340520     0.14800
C601        C  0.74789566  0.24247895  0.34103072    -0.18100
C602        C  0.76435097  0.25985083  0.36459351    -0.20300
C603        C  0.77605853  0.24963962  0.38570534     0.20400
C604        C  0.77097750  0.22158376  0.38329086    -0.03200
C605        C  0.75428232  0.20400090  0.35952168    -0.06300
C606        C  0.74285690  0.21461693  0.33826086     0.20600
C607        C  0.74907523  0.17588879  0.35700402     0.18800
C608        C  0.76047341  0.16558314  0.37843304    -0.17800
C609        C  0.77713726  0.18307746  0.40197768    -0.20000
C610        C  0.78263859  0.21115844  0.40452875     0.20300
C611        C  0.79958453  0.22902549  0.42786694    -0.33000
C612        C  0.80478816  0.25708607  0.43028539     0.01000
C613        C  0.79281734  0.26710165  0.40912809    -0.24300
C614        C  0.72650739  0.19721646  0.31460147    -0.28900
C615        C  0.72117105  0.16917167  0.31182071     0.06700
C616        C  0.73252357  0.15861905  0.33315924    -0.27600
H617        H  0.73914949  0.25086247  0.32492771     0.11400
H618        H  0.76801867  0.28133301  0.36623906     0.12500
H619        H  0.75658955  0.14401690  0.37692396     0.11600
H620        H  0.78579141  0.17466469  0.41815055     0.10800
H621        H  0.80852089  0.22103686  0.44421223     0.16200
H622        H  0.79664507  0.28865462  0.41075856     0.12100
H623        H  0.71772031  0.20553278  0.29845127     0.15000
H624        H  0.72835321  0.13696020  0.33134009     0.14800
C625        C  0.80557671  0.20812336  0.12352745    -0.18100
C626        C  0.78805369  0.19043290  0.14646862    -0.20300
C627        C  0.76017060  0.18529151  0.14991248     0.20400
C628        C  0.74972599  0.19774883  0.12966230    -0.03200
C629        C  0.76737274  0.21554128  0.10649779    -0.06300
C630        C  0.79552558  0.22096926  0.10357958     0.20600
C631        C  0.75695365  0.22823934  0.08656899     0.18800
C632        C  0.72894805  0.22274852  0.08962500    -0.17800
C633        C  0.71151865  0.20521010  0.11257934    -0.20000
C634        C  0.72179565  0.19283579  0.13282643     0.20300
C635        C  0.70474438  0.17606407  0.15648238    -0.33000
C636        C  0.71510930  0.16405715  0.17727967     0.01000
C637        C  0.74274509  0.16839710  0.17353045    -0.24300
C638        C  0.81320963  0.23943454  0.08104877    -0.28900
C639        C  0.80308907  0.25257236  0.06140575     0.06700
C640        C  0.77479749  0.24654153  0.06418442    -0.27600
H641        H  0.82710247  0.21197279  0.12156326     0.11400
H642        H  0.79643364  0.18101726  0.16173236     0.12500
H643        H  0.72061163  0.23227371  0.07444584     0.11600
H644        H  0.69007242  0.20155553  0.11468328     0.10800
H645        H  0.68342304  0.17270689  0.15890524     0.16200
H646        H  0.75093582  0.15922402  0.18935217     0.12100
H647        H  0.83492532  0.24380722  0.07904876     0.15000
H648        H  0.76668316  0.25638589  0.04913724     0.14800
C649        C  0.81356654  0.42261183  0.37253778    -0.18100
C650        C  0.81370903  0.40511390  0.39543739    -0.20300
C651        C  0.83860715  0.40440370  0.40206088     0.20400
C652        C  0.86361847  0.42159039  0.38548586    -0.03200
C653        C  0.86345967  0.43918529  0.36237205    -0.06300
C654        C  0.83829937  0.43969132  0.35577508     0.20600
C655        C  0.88847823  0.45613263  0.34575945     0.18800
C656        C  0.91347131  0.45575258  0.35253359    -0.17800
C657        C  0.91363448  0.43839712  0.37540562    -0.20000
C658        C  0.88881430  0.42114568  0.39189492     0.20300
C659        C  0.88884566  0.40351041  0.41468052    -0.33000
C660        C  0.86407910  0.38629718  0.43143975     0.01000
C661        C  0.83898634  0.38687598  0.42494238    -0.24300
C662        C  0.83831413  0.45701186  0.33236668    -0.28900
C663        C  0.86309213  0.47339313  0.31528399     0.06700
C664        C  0.88809189  0.47298944  0.32242606    -0.27600
H665        H  0.79405067  0.42267441  0.36784723     0.11400
H666        H  0.79430281  0.39208414  0.40794981     0.12500
H667        H  0.93287785  0.46876712  0.34000708     0.11600
H668        H  0.93317397  0.43838465  0.38012193     0.10800
H669        H  0.90831332  0.40336642  0.41948074     0.16200
H670        H  0.81975549  0.37372149  0.43768497     0.12100
H671        H  0.81900795  0.45729653  0.32707462     0.15000
H672        H  0.90743786  0.48588396  0.30973015     0.14800
C673        C  0.91434088  0.47291347  0.12068386    -0.18100
C674        C  0.91243306  0.45480129  0.09755720    -0.20300
C675        C  0.88669656  0.42942929  0.09198510     0.20400
C676        C  0.86257500  0.42217986  0.10972671    -0.03200
C677        C  0.86449293  0.44052711  0.13306992    -0.06300
C678        C  0.89054384  0.46593682  0.13858999     0.20600
C679        C  0.84046177  0.43336728  0.15097834     0.18800
C680        C  0.81467235  0.40803267  0.14518479    -0.17800
C681        C  0.81279243  0.38978035  0.12206243    -0.20000
C682        C  0.83664395  0.39656661  0.10426589     0.20300
C683        C  0.83511070  0.37826572  0.08116703    -0.33000
C684        C  0.85913359  0.38556180  0.06334251     0.01000
C685        C  0.88477891  0.41119006  0.06898223    -0.24300
C686        C  0.89249148  0.48384206  0.16208164    -0.28900
C687        C  0.86881054  0.47673752  0.18038281     0.06700
C688        C  0.84275338  0.45153250  0.17450664    -0.27600
H689        H  0.93447941  0.49234312  0.12463983     0.11400
H690        H  0.93112819  0.46060267  0.08407057     0.12500
H691        H  0.79598165  0.40223836  0.15866802     0.11600
H692        H  0.79269039  0.37030019  0.11816501     0.10800
H693        H  0.81528112  0.35857877  0.07692299     0.16200
H694        H  0.90351924  0.41691882  0.05557423     0.12100
H695        H  0.91262891  0.50321770  0.16629071     0.15000
H696        H  0.82431486  0.44591893  0.18836271     0.14800
C697        C  0.63348111  0.95862367  0.36587534    -0.18100
C698        C  0.64165925  0.97810545  0.34222113    -0.20300
C699        C  0.63813794  0.00192090  0.34425607     0.20400
C700        C  0.62681288  0.00642901  0.37068002    -0.03200
C701        C  0.61893713  0.98700940  0.39464525    -0.06300
C702        C  0.62185237  0.96271206  0.39211710     0.20600
C703        C  0.60741092  0.99154877  0.42082199     0.18800
C704        C  0.60413535  0.01545862  0.42309681    -0.17800
C705        C  0.61153395  0.03442426  0.39925915    -0.20000
C706        C  0.62259637  0.02993316  0.37289828     0.20300
C707        C  0.62875763  0.04812724  0.34845297    -0.33000
C708        C  0.63954353  0.04354465  0.32189042     0.01000
C709        C  0.64488261  0.02083101  0.32010008    -0.24300
C710        C  0.61231020  0.94260737  0.41549521    -0.28900
C711        C  0.60005830  0.94671341  0.44133579     0.06700
C712        C  0.59845108  0.97166979  0.44397981    -0.27600
H713        H  0.63595180  0.94016519  0.36349471     0.11400
H714        H  0.65027498  0.97426403  0.32211347     0.12500
H715        H  0.59530026  0.01918364  0.44311191     0.11600
H716        H  0.60827406  0.05242669  0.40130725     0.10800
H717        H  0.62474814  0.06570571  0.34989375     0.16200
H718        H  0.65294223  0.01711043  0.29948943     0.12100
H719        H  0.61364135  0.92347574  0.41320373     0.15000
H720        H  0.58915754  0.97523019  0.46373753     0.14800
C721        C  0.65678096  0.99185854  0.10294109    -0.18100
C722        C  0.66616815  0.01239337  0.12566951    -0.20300
C723        C  0.64738707  0.01054322  0.14823264     0.20400
C724        C  0.61921786  0.98704004  0.14856844    -0.03200
C725        C  0.60972529  0.96647263  0.12563465    -0.06300
C726        C  0.62842461  0.96920135  0.10232724     0.20600
C727        C  0.58109030  0.94397473  0.12526641     0.18800
C728        C  0.56256564  0.94134036  0.14839697    -0.17800
C729        C  0.57203882  0.96153945  0.17122994    -0.20000
C730        C  0.60008813  0.98469940  0.17110707     0.20300
C731        C  0.60889375  0.00610381  0.19254684    -0.33000
C732        C  0.63641649  0.03035964  0.19166827     0.01000
C733        C  0.65585426  0.03219418  0.16982397    -0.24300
C734        C  0.61794271  0.95020574  0.07804086    -0.28900
C735        C  0.58891617  0.92915799  0.07669450     0.06700
C736        C  0.57098353  0.92541810  0.10093594    -0.27600
H737        H  0.67146707  0.99419647  0.08533574     0.11400
H738        H  0.68792309  0.03010923  0.12517636     0.12500
H739        H  0.54054677  0.92411969  0.14837611     0.11600
H740        H  0.55718216  0.95949722  0.18852219     0.10800
H741        H  0.59371899  0.00424631  0.20937720     0.16200
H742        H  0.67717324  0.05067293  0.16917001     0.12100
H743        H  0.63178929  0.95307103  0.05933680     0.15000
H744        H  0.54866643  0.90888011  0.10013821     0.14800
C745        C  0.45531436  0.92434227  0.35923698    -0.18100
C746        C  0.47239671  0.92451582  0.38269026    -0.20300
C747        C  0.46767872  0.89880210  0.39512388     0.20400
C748        C  0.44575856  0.87264498  0.38353943    -0.03200
C749        C  0.42870142  0.87246371  0.35966942    -0.06300
C750        C  0.43333560  0.89845504  0.34772503     0.20600
C751        C  0.40683319  0.84630164  0.34800322     0.18800
C752        C  0.40231030  0.82059742  0.36024404    -0.17800
C753        C  0.41903758  0.82078178  0.38408554    -0.20000
C754        C  0.44070014  0.84666536  0.39596063     0.20300
C755        C  0.45728232  0.84700039  0.42012000    -0.33000
C756        C  0.47912219  0.87295562  0.43188387     0.01000
C757        C  0.48434709  0.89878644  0.41905931    -0.24300
C758        C  0.41569779  0.89812790  0.32473592    -0.28900
C759        C  0.39362819  0.87217007  0.31322558     0.06700
C760        C  0.38962010  0.84631818  0.32462763    -0.27600
H761        H  0.45919793  0.94447960  0.35020553     0.11400
H762        H  0.48915256  0.94477608  0.39127399     0.12500
H763        H  0.38564367  0.80033748  0.35156656     0.11600
H764        H  0.41495731  0.80064692  0.39331653     0.10800
H765        H  0.45327615  0.82698777  0.42965804     0.16200
H766        H  0.50112300  0.91889536  0.42795939     0.12100
H767        H  0.41916005  0.91815829  0.31579378     0.15000
H768        H  0.37266392  0.82625267  0.31584628     0.14800
C769        C  0.47492799  0.91006725  0.12143806    -0.18100
C770        C  0.45887436  0.91127951  0.14515708    -0.20300
C771        C  0.43319784  0.88695361  0.15350410     0.20400
C772        C  0.42405982  0.86091762  0.13841097    -0.03200
C773        C  0.44048568  0.85958613  0.11473770    -0.06300
C774        C  0.46568503  0.88444859  0.10586708     0.20600
C775        C  0.43138768  0.83355956  0.09955193     0.18800
C776        C  0.40610583  0.80908215  0.10847174    -0.17800
C777        C  0.38960956  0.81050034  0.13166994    -0.20000
C778        C  0.39823742  0.83636531  0.14654781     0.20300
C779        C  0.38129681  0.83821350  0.16908278    -0.33000
C780        C  0.39000982  0.86421676  0.18389551     0.01000
C781        C  0.41626397  0.88835674  0.17629655    -0.24300
C782        C  0.48090361  0.88340283  0.08120556    -0.28900
C783        C  0.47173631  0.85773277  0.06565954     0.06700
C784        C  0.44739839  0.83268311  0.07533484    -0.27600
H785        H  0.49442551  0.92925371  0.11505647     0.11400
H786        H  0.46628622  0.93137760  0.15663212     0.12500
H787        H  0.39882149  0.78892851  0.09715994     0.11600
H788        H  0.36993178  0.79140243  0.13778419     0.10800
H789        H  0.36128264  0.81940286  0.17503762     0.16200
H790        H  0.42322611  0.90844836  0.18763996     0.12100
H791        H  0.49996865  0.90265606  0.07398957     0.15000
H792        H  0.44039150  0.81289277  0.06334493     0.14800
C793        C  0.06424908  0.52162420  0.35689283    -0.18100
C794        C  0.06388510  0.53871991  0.37995607    -0.20300
C795        C  0.08837117  0.55522420  0.39725757     0.20400
C796        C  0.11333102  0.55409354  0.39167185    -0.03200
C797        C  0.11369126  0.53677788  0.36838340    -0.06300
C798        C  0.08910414  0.52076216  0.35079522     0.20600
C799        C  0.13870651  0.53579414  0.36244366     0.18800
C800        C  0.16299058  0.55189104  0.38022405    -0.17800
C801        C  0.16264691  0.56910798  0.40332171    -0.20000
C802        C  0.13800252  0.57052426  0.40906909     0.20300
C803        C  0.13765298  0.58826807  0.43167384    -0.33000
C804        C  0.11295185  0.58984543  0.43702740     0.01000
C805        C  0.08835733  0.57304133  0.41982529    -0.24300
C806        C  0.08983796  0.50445000  0.32708966    -0.28900
C807        C  0.11478943  0.50375405  0.32047195     0.06700
C808        C  0.13906098  0.51909492  0.33857935    -0.27600
H809        H  0.04516438  0.50929249  0.34361369     0.11400
H810        H  0.04452329  0.53925124  0.38406651     0.12500
H811        H  0.18235573  0.55138068  0.37608895     0.11600
H812        H  0.18175351  0.58151072  0.41654219     0.10800
H813        H  0.15668537  0.60100486  0.44491117     0.16200
H814        H  0.06914893  0.57389429  0.42387459     0.12100
H815        H  0.07083572  0.49233537  0.31360148     0.15000
H816        H  0.15829768  0.51854034  0.33371727     0.14800
C817        C  0.07083756  0.50277519  0.11669665    -0.18100
C818        C  0.07330518  0.52067232  0.09315068    -0.20300
C819        C  0.09646167  0.54870167  0.09187962     0.20400
C820        C  0.11747915  0.55886900  0.11434993    -0.03200
C821        C  0.11504654  0.54071517  0.13810389    -0.06300
C822        C  0.09152295  0.51259887  0.13929562     0.20600
C823        C  0.13602570  0.55069420  0.16066153     0.18800
C824        C  0.15922972  0.57876223  0.15924868    -0.17800
C825        C  0.16154382  0.59684029  0.13575476    -0.20000
C826        C  0.14076724  0.58715124  0.11316780     0.20300
C827        C  0.14266996  0.60518269  0.08956482    -0.33000
C828        C  0.12157802  0.59508826  0.06717859     0.01000
C829        C  0.09871755  0.56673075  0.06856298    -0.24300
C830        C  0.08899289  0.49475200  0.16305790    -0.28900
C831        C  0.10975018  0.50443928  0.18566714     0.06700
C832        C  0.13333344  0.53244387  0.18423282    -0.27600
H833        H  0.05269953  0.48124625  0.11725917     0.11400
H834        H  0.05700591  0.51262205  0.07598081     0.12500
H835        H  0.17554417  0.58678137  0.17639517     0.11600
H836        H  0.17957648  0.61842640  0.13528438     0.10800
H837        H  0.16032080  0.62697382  0.08874948     0.16200
H838        H  0.08224633  0.55858145  0.05155792     0.12100
H839        H  0.07089199  0.47319013  0.16381878     0.15000
H840        H  0.14947630  0.54012933  0.20156441     0.14800
C841        C  0.01451948  0.39131055  0.42514057    -0.18100
C842        C  0.03420884  0.40122043  0.40180598    -0.20300
C843        C  0.02754765  0.38637194  0.37464823     0.20400
C844        C  0.00135745  0.36057880  0.37133661    -0.03200
C845        C  0.98134016  0.35070537  0.39484184    -0.06300
C846        C  0.98782737  0.36651340  0.42157261     0.20600
C847        C  0.95442431  0.32579704  0.39111735     0.18800
C848        C  0.94837143  0.31029967  0.36434561    -0.17800
C849        C  0.96832413  0.32000013  0.34105575    -0.20000
C850        C  0.99463687  0.34543105  0.34408203     0.20300
C851        C  0.01375957  0.35677673  0.31997291    -0.33000
C852        C  0.03891833  0.38340388  0.32276106     0.01000
C853        C  0.04603379  0.39763926  0.35030870    -0.24300
C854        C  0.96710628  0.35804477  0.44381251    -0.28900
C855        C  0.93965005  0.33422222  0.43971975     0.06700
C856        C  0.93370445  0.31760056  0.41369381    -0.27600
H857        H  0.01982826  0.40354020  0.44566112     0.11400
H858        H  0.05433350  0.42091925  0.40471583     0.12500
H859        H  0.92792251  0.29104574  0.36112950     0.11600
H860        H  0.96283735  0.30803188  0.32035735     0.10800
H861        H  0.00825223  0.34590412  0.29859125     0.16200
H862        H  0.06557627  0.41808293  0.35242048     0.12100
H863        H  0.97211071  0.37078551  0.46395858     0.15000
H864        H  0.91266825  0.29912262  0.41043590     0.14800
C865        C  0.93795567  0.36393492  0.14849628    -0.18100
C866        C  0.95727541  0.37238458  0.17219497    -0.20300
C867        C  0.98127268  0.36919552  0.17034053     0.20400
C868        C  0.98529245  0.35630231  0.14496715    -0.03200
C869        C  0.96554202  0.34740320  0.12115288    -0.06300
C870        C  0.94220526  0.35193200  0.12269893     0.20600
C871        C  0.96976411  0.33505429  0.09535304     0.18800
C872        C  0.99332444  0.33107790  0.09402498    -0.17800
C873        C  0.01308688  0.34019864  0.11752903    -0.20000
C874        C  0.00955860  0.35328083  0.14291134     0.20300
C875        C  0.03027927  0.36428341  0.16575525    -0.33000
C876        C  0.02688319  0.37819129  0.19057551     0.01000
C877        C  0.00182569  0.37969651  0.19297479    -0.24300
C878        C  0.92418684  0.34548003  0.09797666    -0.28900
C879        C  0.92886431  0.33420647  0.07178547     0.06700
C880        C  0.95105831  0.32807426  0.07091951    -0.27600
H881        H  0.92002422  0.36735203  0.15008253     0.11400
H882        H  0.95386181  0.38213962  0.19165120     0.12500
H883        H  0.99687841  0.32156812  0.07445709     0.11600
H884        H  0.03144613  0.33751226  0.11558538     0.10800
H885        H  0.04936797  0.36284038  0.16374769     0.16200
H886        H  0.99868584  0.39006413  0.21207001     0.12100
H887        H  0.90690241  0.34996834  0.09876555     0.15000
H888        H  0.95475474  0.31949160  0.05067213     0.14800
C889        C  0.40034777  0.38268486  0.41769926    -0.18100
C890        C  0.41137096  0.37457879  0.39409133    -0.20300
C891        C  0.39470591  0.36152676  0.36872482     0.20400
C892        C  0.36647020  0.35614953  0.36719780    -0.03200
C893        C  0.35542624  0.36473548  0.39098214    -0.06300
C894        C  0.37259562  0.37812161  0.41616901     0.20600
C895        C  0.32759364  0.36053427  0.38933011     0.18800
C896        C  0.31082238  0.34694004  0.36401593    -0.17800
C897        C  0.32167867  0.33808769  0.34049848    -0.20000
C898        C  0.34960917  0.34283254  0.34170392     0.20300
C899        C  0.36134553  0.33525775  0.31771856    -0.33000
C900        C  0.38990352  0.34162345  0.31890647     0.01000
C901        C  0.40617201  0.35441379  0.34462507    -0.24300
C902        C  0.36218094  0.38749210  0.43922008    -0.28900
C903        C  0.33496524  0.38455447  0.43761793     0.06700
C904        C  0.31747706  0.37061509  0.41269444    -0.27600
H905        H  0.41373634  0.39298876  0.43697935     0.11400
H906        H  0.43305575  0.37877419  0.39555190     0.12500
H907        H  0.28939105  0.34339122  0.36226108     0.11600
H908        H  0.30836260  0.32791121  0.32115565     0.10800
H909        H  0.34879421  0.32561432  0.29777307     0.16200
H910        H  0.42809916  0.35920425  0.34570524     0.12100
H911        H  0.37595180  0.39800595  0.45820933     0.15000
H912        H  0.29646669  0.36818337  0.41119052     0.14800
C913        C  0.34323524  0.32757035  0.08622099    -0.18100
C914        C  0.35297714  0.31752429  0.10959690    -0.20300
C915        C  0.36038856  0.33154524  0.13733737     0.20400
C916        C  0.35716056  0.35549521  0.14171548    -0.03200
C917        C  0.34760477  0.36578214  0.11809199    -0.06300
C918        C  0.34084617  0.35191825  0.09008320     0.20600
C919        C  0.34584658  0.39059104  0.12222069     0.18800
C920        C  0.35235343  0.40413179  0.15014254    -0.17800
C921        C  0.36146790  0.39376617  0.17358295    -0.20000
C922        C  0.36448770  0.36986693  0.16937669     0.20300
C923        C  0.37589760  0.36092808  0.19199897    -0.33000
C924        C  0.38073833  0.33810912  0.18742185     0.01000
C925        C  0.37205547  0.32285702  0.16033943    -0.24300
C926        C  0.33284321  0.36329439  0.06624574    -0.28900
C927        C  0.33244387  0.38877087  0.07003092     0.06700
C928        C  0.33857955  0.40203396  0.09811210    -0.27600
H929        H  0.33814879  0.31663858  0.06490262     0.11400
H930        H  0.35522058  0.29908393  0.10578503     0.12500
H931        H  0.35091338  0.42307161  0.15369042     0.11600
H932        H  0.36691158  0.40492720  0.19478630     0.10800
H933        H  0.38208815  0.37257536  0.21293429     0.16200
H934        H  0.37564676  0.30522591  0.15664261     0.12100
H935        H  0.32844094  0.35326902  0.04443460     0.15000
H936        H  0.33825405  0.42167500  0.10097058     0.14800
C937        C  0.25937243  0.46362013  0.35530535    -0.18100
C938        C  0.24178788  0.46184288  0.33160509    -0.20300
C939        C  0.21209126  0.44394822  0.33352146     0.20400
C940        C  0.19999563  0.42728831  0.35933541    -0.03200
C941        C  0.21777732  0.42899550  0.38323854    -0.06300
C942        C  0.24757007  0.44746384  0.38127994     0.20600
C943        C  0.20572787  0.41248095  0.40918548     0.18800
C944        C  0.17603006  0.39449144  0.41099460    -0.17800
C945        C  0.15839755  0.39292332  0.38736704    -0.20000
C946        C  0.17013303  0.40924332  0.36144810     0.20300
C947        C  0.15253939  0.40826873  0.33787597    -0.33000
C948        C  0.16443214  0.42538828  0.31238717     0.01000
C949        C  0.19428145  0.44287741  0.31029824    -0.24300
C950        C  0.26502189  0.44963039  0.40539873    -0.28900
C951        C  0.25320678  0.43321312  0.43130352     0.06700
C952        C  0.22356002  0.41445864  0.43293606    -0.27600
H953        H  0.28221293  0.47779179  0.35339313     0.11400
H954        H  0.25140023  0.47470813  0.31188537     0.12500
H955        H  0.16640872  0.38174133  0.43077739     0.11600
H956        H  0.13553141  0.37902582  0.38943844     0.10800
H957        H  0.12957992  0.39488771  0.33977914     0.16200
H958        H  0.20369710  0.45606002  0.29071171     0.12100
H959        H  0.28788715  0.46397622  0.40394547     0.15000
H960        H  0.21433619  0.40190745  0.45294432     0.14800
C961        C  0.21327460  0.48059392  0.12439969    -0.18100
C962        C  0.23070076  0.48050308  0.10159672    -0.20300
C963        C  0.23040063  0.45530691  0.09414347     0.20400
C964        C  0.21228395  0.42987140  0.10964301    -0.03200
C965        C  0.19460692  0.42995762  0.13270062    -0.06300
C966        C  0.19527797  0.45549869  0.14012079     0.20600
C967        C  0.17654174  0.40465228  0.14849350     0.18800
C968        C  0.17609076  0.37938978  0.14071874    -0.17800
C969        C  0.19367832  0.37931561  0.11785193    -0.20000
C970        C  0.21201624  0.40448300  0.10227715     0.20300
C971        C  0.23012192  0.40482071  0.07955688    -0.33000
C972        C  0.24815633  0.43019536  0.06395640     0.01000
C973        C  0.24803887  0.45525691  0.07148724    -0.24300
C974        C  0.17827638  0.45571718  0.16340429    -0.28900
C975        C  0.16061147  0.43083328  0.17981067     0.06700
C976        C  0.15961439  0.40522132  0.17199007    -0.27600
H977        H  0.21400182  0.50036819  0.12986253     0.11400
H978        H  0.24451605  0.50019036  0.08985740     0.12500
H979        H  0.16229754  0.35972208  0.15248892     0.11600
H980        H  0.19303568  0.35957452  0.11245270     0.10800
H981        H  0.23000166  0.38538524  0.07386919     0.16200
H982        H  0.26197278  0.47499100  0.05984712     0.12100
H983        H  0.17923508  0.47557341  0.16905638     0.15000
H984        H  0.14599680  0.38588311  0.18436646     0.14800
C985        C  0.66619980  0.64091249  0.37028079    -0.18100
C986        C  0.65527768  0.64951345  0.34674066    -0.20300
C987        C  0.62682405  0.64315312  0.34712342     0.20400
C988        C  0.60947803  0.62873449  0.37195515    -0.03200
C989        C  0.62055431  0.62028245  0.39576732    -0.06300
C990        C  0.64890829  0.62590106  0.39469894     0.20600
C991        C  0.60291476  0.60535271  0.42015494     0.18800
C992        C  0.57467177  0.59954314  0.42099375    -0.17800
C993        C  0.56363345  0.60765454  0.39731736    -0.20000
C994        C  0.58074339  0.62187097  0.37256801     0.20300
C995        C  0.56928965  0.62844824  0.34799830    -0.33000
C996        C  0.58609187  0.64192565  0.32274509     0.01000
C997        C  0.61508218  0.64999748  0.32272828    -0.24300
C998        C  0.65907948  0.61554472  0.41751739    -0.28900
C999        C  0.64117415  0.59971744  0.44132212     0.06700
C1000       C  0.61341479  0.59552261  0.44280617    -0.27600
H1001       H  0.68804280  0.64555666  0.36911862     0.11400
H1002       H  0.66892896  0.66061557  0.32791897     0.12500
H1003       H  0.56091201  0.58813151  0.43965100     0.11600
H1004       H  0.54156271  0.60235414  0.39811780     0.10800
H1005       H  0.54697952  0.62243369  0.34821267     0.16200
H1006       H  0.62804416  0.66026727  0.30321680     0.12100
H1007       H  0.68051241  0.61901609  0.41625676     0.15000
H1008       H  0.59938960  0.58353723  0.46109507     0.14800
C1009       C  0.63796701  0.65262255  0.09117937    -0.18100
C1010       C  0.62743127  0.66204165  0.11433451    -0.20300
C1011       C  0.61675824  0.64593437  0.14056762     0.20400
C1012       C  0.61710812  0.62027214  0.14363170    -0.03200
C1013       C  0.62757047  0.61070127  0.12025757    -0.06300
C1014       C  0.63791937  0.62687343  0.09380295     0.20600
C1015       C  0.62686518  0.58450194  0.12304138     0.18800
C1016       C  0.61660122  0.56855056  0.14935490    -0.17800
C1017       C  0.60647687  0.57814409  0.17257429    -0.20000
C1018       C  0.60632655  0.60375067  0.16974943     0.20300
C1019       C  0.59488625  0.61268688  0.19233188    -0.33000
C1020       C  0.59370648  0.63782129  0.18924332     0.01000
C1021       C  0.60511186  0.65461780  0.16346735    -0.24300
C1022       C  0.64703727  0.61644809  0.07011523    -0.28900
C1023       C  0.64509382  0.58975175  0.07244563     0.06700
C1024       C  0.63548886  0.57418048  0.09908459    -0.27600
H1025       H  0.64573949  0.66526295  0.07101613     0.11400
H1026       H  0.62732683  0.68177546  0.11157379     0.12500
H1027       H  0.61600842  0.54843812  0.15179923     0.11600
H1028       H  0.59829418  0.56527447  0.19255172     0.10800
H1029       H  0.58628146  0.59960743  0.21213238     0.16200
H1030       H  0.60420839  0.67395480  0.16086098     0.12100
H1031       H  0.65409170  0.62825370  0.04935673     0.15000
H1032       H  0.63401103  0.55357863  0.10080987     0.14800
C1033       C  0.37596042  0.54925669  0.13347493    -0.18100
C1034       C  0.39386223  0.56527703  0.15707035    -0.20300
C1035       C  0.42208262  0.57098580  0.15846728     0.20400
C1036       C  0.43239423  0.56049188  0.13588105    -0.03200
C1037       C  0.41443251  0.54454631  0.11201610    -0.06300
C1038       C  0.38600463  0.53876629  0.11081422     0.20600
C1039       C  0.42492863  0.53428096  0.08944616     0.18800
C1040       C  0.45308085  0.53986853  0.09079380    -0.17800
C1041       C  0.47079693  0.55549346  0.11451168    -0.20000
C1042       C  0.46066123  0.56588265  0.13712656     0.20300
C1043       C  0.47837140  0.58164491  0.16089436    -0.33000
C1044       C  0.46838592  0.59242594  0.18335029     0.01000
C1045       C  0.44019396  0.58701145  0.18200284    -0.24300
C1046       C  0.36813651  0.52239690  0.08715019    -0.28900
C1047       C  0.37852770  0.51194538  0.06473063     0.06700
C1048       C  0.40705245  0.51830303  0.06600823    -0.27600
H1049       H  0.35424315  0.54505402  0.13296900     0.11400
H1050       H  0.38560987  0.57315942  0.17427350     0.12500
H1051       H  0.46135868  0.53203309  0.07356192     0.11600
H1052       H  0.49244015  0.55948113  0.11514910     0.10800
H1053       H  0.50007806  0.58578909  0.16170891     0.16200
H1054       H  0.43228579  0.59513224  0.19933451     0.12100
H1055       H  0.34621172  0.51758140  0.08635257     0.15000
H1056       H  0.41540729  0.51039701  0.04891541     0.14800
C1057       C  0.42653307  0.60063586  0.38309871    -0.18100
C1058       C  0.40954416  0.58292535  0.40635361    -0.20300
C1059       C  0.40420999  0.55488359  0.40889832     0.20400
C1060       C  0.41642952  0.54475694  0.38803359    -0.03200
C1061       C  0.43344743  0.56254560  0.36460261    -0.06300
C1062       C  0.43844913  0.59060950  0.36194521     0.20600
C1063       C  0.44527239  0.55209219  0.34370106     0.18800
C1064       C  0.44048204  0.52432569  0.34646869    -0.17800
C1065       C  0.42372438  0.50677515  0.36966276    -0.20000
C1066       C  0.41149071  0.51672503  0.39039241     0.20300
C1067       C  0.39428117  0.49896894  0.41331457    -0.33000
C1068       C  0.38170711  0.50863549  0.43404334     0.01000
C1069       C  0.38682157  0.53670898  0.43178728    -0.24300
C1070       C  0.45508418  0.60793985  0.33809042    -0.28900
C1071       C  0.46649551  0.59730291  0.31692367     0.06700
C1072       C  0.46158175  0.56943193  0.32017882    -0.27600
H1073       H  0.43018791  0.62211486  0.38154661     0.11400
H1074       H  0.40045200  0.59111492  0.42226116     0.12500
H1075       H  0.44957207  0.51611738  0.33057339     0.11600
H1076       H  0.42017970  0.48533449  0.37127438     0.10800
H1077       H  0.39054738  0.47744330  0.41486513     0.16200
H1078       H  0.37738872  0.54443187  0.44783802     0.12100
H1079       H  0.45894074  0.62945645  0.33588914     0.15000
H1080       H  0.47050140  0.56102502  0.30429181     0.14800
C1081       C  0.50282799  0.73099558  0.08628594    -0.18100
C1082       C  0.50227128  0.71352318  0.10950350    -0.20300
C1083       C  0.52303960  0.72461809  0.13209614     0.20400
C1084       C  0.54468682  0.75357006  0.13122939    -0.03200
C1085       C  0.54519500  0.77124581  0.10781959    -0.06300
C1086       C  0.52415653  0.75988770  0.08525836     0.20600
C1087       C  0.56665663  0.80027935  0.10709197     0.18800
C1088       C  0.58738721  0.81136640  0.12973461    -0.17800
C1089       C  0.58694589  0.79383912  0.15286197    -0.20000
C1090       C  0.56570041  0.76491248  0.15383836     0.20300
C1091       C  0.56487613  0.74724294  0.17720227    -0.33000
C1092       C  0.54301346  0.71847231  0.17851906     0.01000
C1093       C  0.52231736  0.70733347  0.15570206    -0.24300
C1094       C  0.52473879  0.77760340  0.06212741    -0.28900
C1095       C  0.54611772  0.80661010  0.06114553     0.06700
C1096       C  0.56698209  0.81773384  0.08381279    -0.27600
H1097       H  0.48651189  0.72191901  0.06916565     0.11400
H1098       H  0.48550460  0.69131830  0.10984324     0.12500
H1099       H  0.60398317  0.83363805  0.12956204     0.11600
H1100       H  0.60317918  0.80294885  0.17006228     0.10800
H1101       H  0.58081049  0.75606263  0.19473393     0.16200
H1102       H  0.50546503  0.68515496  0.15638895     0.12100
H1103       H  0.50846788  0.76877950  0.04493091     0.15000
H1104       H  0.58343120  0.84007015  0.08348388     0.14800
C1105       C  0.50801589  0.78104959  0.35681535    -0.18100
C1106       C  0.50795235  0.76366583  0.33379578    -0.20300
C1107       C  0.52893883  0.75593990  0.33266620     0.20400
C1108       C  0.55072605  0.76650369  0.35439939    -0.03200
C1109       C  0.55082836  0.78414216  0.37764126    -0.06300
C1110       C  0.52907617  0.79101142  0.37907223     0.20600
C1111       C  0.57220922  0.79425538  0.39983545     0.18800
C1112       C  0.59371798  0.78722718  0.39809593    -0.17800
C1113       C  0.59357185  0.76967083  0.37508358    -0.20000
C1114       C  0.57195521  0.75887168  0.35334611     0.20300
C1115       C  0.57078844  0.74010512  0.33099464    -0.33000
C1116       C  0.54857275  0.72881404  0.30976706     0.01000
C1117       C  0.52806340  0.73730837  0.31054589    -0.24300
C1118       C  0.52825377  0.80705204  0.40314244    -0.28900
C1119       C  0.54884945  0.81639912  0.42599034     0.06700
C1120       C  0.57121406  0.81051017  0.42377297    -0.27600
H1121       H  0.49127642  0.78629768  0.35749821     0.11400
H1122       H  0.49118314  0.75585436  0.31715234     0.12500
H1123       H  0.61038551  0.79490009  0.41484123     0.11600
H1124       H  0.61014433  0.76418675  0.37455623     0.10800
H1125       H  0.58679998  0.73384320  0.33053185     0.16200
H1126       H  0.51098755  0.72899775  0.29421505     0.12100
H1127       H  0.51117057  0.81180031  0.40435712     0.15000
H1128       H  0.58728654  0.81774031  0.44114906     0.14800
O1129       O  0.51050332  0.61019633  0.71332597    -0.85600
O1130       O  0.56491320  0.62701201  0.73289264    -0.82700
C1131       C  0.57857534  0.64478752  0.71257704     0.97800
O1132       O  0.57970108  0.66851280  0.71244713    -0.82700
O1133       O  0.56265064  0.70792883  0.72170409    -0.85400
C1134       C  0.54140040  0.70091136  0.70464954     1.02300
O1135       O  0.51778450  0.67870445  0.70975247    -0.78100
O1136       O  0.48046371  0.62393878  0.72660079    -0.78300
C1137       C  0.48746940  0.61006138  0.70920253     1.02300
O1138       O  0.49180509  0.60377114  0.77349266    -0.85600
O1139       O  0.54694608  0.62761463  0.79227661    -0.82700
C1140       C  0.57294154  0.64568034  0.79623440     0.97800
O1141       O  0.58666143  0.66510489  0.77698244    -0.82700
O1142       O  0.56606064  0.70127955  0.78547411    -0.85300
C1143       C  0.54739866  0.70838668  0.78772063     1.02300
O1144       O  0.52603753  0.69775255  0.77040970    -0.78200
O1145       O  0.49240437  0.64197571  0.78907123    -0.78300
C1146       C  0.48492201  0.61612606  0.79273829     1.02300
Cr1147     Cr  0.52907116  0.61967740  0.75276381     1.93700
Cr1148     Cr  0.57122898  0.68363383  0.74913250     1.93200
Cr1149     Cr  0.50628666  0.66021846  0.74915325     1.39100
O1150       O  0.53564247  0.65476150  0.75028555    -1.23400
O1151       O  0.37191715  0.48537748  0.52181622    -0.85600
O1152       O  0.34725582  0.43019379  0.54132343    -0.82700
C1153       C  0.32934583  0.40414895  0.54518680     0.97800
O1154       O  0.30896462  0.39067396  0.52677386    -0.82700
O1155       O  0.27378915  0.41274559  0.53729512    -0.85400
C1156       C  0.26791689  0.43230514  0.54022671     1.02300
O1157       O  0.27830686  0.45334026  0.52254270    -0.78100
O1158       O  0.33491252  0.48653056  0.53846563    -0.78300
C1159       C  0.36084650  0.49380482  0.54094434     1.02300
O1160       O  0.36243458  0.46587151  0.96153134    -0.85600
O1161       O  0.34474817  0.41121007  0.98127415    -0.82700
C1162       C  0.32713598  0.39830554  0.96057822     0.97800
O1163       O  0.30323949  0.39692530  0.96122386    -0.82700
O1164       O  0.26439227  0.41459419  0.97351988    -0.85300
C1165       C  0.27102618  0.43549395  0.95624666     1.02300
O1166       O  0.29354895  0.45911415  0.96044812    -0.78200
O1167       O  0.34929899  0.49635183  0.97498035    -0.78300
C1168       C  0.36324013  0.48930249  0.95778096     1.02300
Cr1169     Cr  0.35414222  0.44770126  0.50162209     1.93700
Cr1170     Cr  0.28949469  0.40592417  0.99917662     1.93200
Cr1171     Cr  0.31474415  0.47186645  0.49950182     1.39100
O1172       O  0.31933633  0.44196202  0.50046531    -1.23400
O1173       O  0.08289762  0.46158050  0.71427082    -0.85600
O1174       O  0.04537337  0.40610801  0.73218288    -0.82700
C1175       C  0.04937366  0.39216708  0.71220720     0.97800
O1176       O  0.07235772  0.39169548  0.71194048    -0.82700
O1177       O  0.12965455  0.41076125  0.72191852    -0.85400
C1178       C  0.14427914  0.43252432  0.70567473     1.02300
O1179       O  0.14524500  0.45573991  0.71121422    -0.78100
O1180       O  0.12670016  0.49181504  0.72851669    -0.78300
C1181       C  0.10603392  0.48488358  0.71075112     1.02300
O1182       O  0.09345980  0.47840864  0.77538605    -0.85600
O1183       O  0.06261862  0.42252387  0.79212025    -0.82700
C1184       C  0.05514915  0.39662886  0.79523758     0.97800
O1185       O  0.06165319  0.38385702  0.77585298    -0.82700
O1186       O  0.11908706  0.40641399  0.78572693    -0.85300
C1187       C  0.14482736  0.42582363  0.78865186     1.02300
O1188       O  0.15548908  0.44719818  0.77151080    -0.78200
O1189       O  0.13192572  0.47910765  0.79044487    -0.78300
C1190       C  0.11316454  0.48590967  0.79431236     1.02300
Cr1191     Cr  0.07320426  0.44169547  0.75319546     1.93700
Cr1192     Cr  0.09622017  0.40084363  0.74890219     1.93200
Cr1193     Cr  0.13720817  0.46618596  0.75052497     1.39100
O1194       O  0.10232054  0.43613242  0.75070707    -1.23400
O1195       O  0.49859379  0.88055772  0.52367219    -0.85600
O1196       O  0.55320567  0.90735752  0.54428786    -0.82700
C1197       C  0.57878913  0.91418461  0.54845722     0.97800
O1198       O  0.59222840  0.90894921  0.52865392    -0.82700
O1199       O  0.56742611  0.85111304  0.53484980    -0.85400
C1200       C  0.54707251  0.82569205  0.53674290     1.02300
O1201       O  0.52660754  0.81611319  0.51822912    -0.78100
O1202       O  0.49473532  0.83987747  0.53549403    -0.78300
C1203       C  0.48954111  0.85952309  0.54102073     1.02300
O1204       O  0.51924092  0.89440737  0.96256176    -0.85600
O1205       O  0.57286864  0.92840068  0.98626399    -0.82700
C1206       C  0.58587426  0.92437662  0.96527526     0.97800
O1207       O  0.58646491  0.90147863  0.96452174    -0.82700
O1208       O  0.56712059  0.84396324  0.97182501    -0.85300
C1209       C  0.54710957  0.83137126  0.95301078     1.02300
O1210       O  0.52368999  0.83045536  0.95668573    -0.78200
O1211       O  0.48755392  0.84940541  0.97104407    -0.78300
C1212       C  0.49650139  0.87191040  0.95551586     1.02300
Cr1213     Cr  0.53665425  0.90087465  0.50415129     1.93700
Cr1214     Cr  0.57506501  0.87592012  0.00024021     1.93200
Cr1215     Cr  0.51018623  0.83671773  0.49617927     1.39100
O1216       O  0.54081066  0.87095938  0.49975272    -1.23400
O1217       O  0.87611807  0.37588070  0.52020174    -0.85600
O1218       O  0.90461097  0.34961962  0.54057051    -0.82700
C1219       C  0.91101805  0.33064475  0.54501861     0.97800
O1220       O  0.90417540  0.31077028  0.52611812    -0.82700
O1221       O  0.84671772  0.27730902  0.53544507    -0.85400
C1222       C  0.82131050  0.27168157  0.53798953     1.02300
O1223       O  0.81139596  0.28279166  0.52046948    -0.78100
O1224       O  0.83698886  0.33940761  0.53654133    -0.78300
C1225       C  0.85648982  0.36506823  0.53934982     1.02300
O1226       O  0.88810070  0.36737675  0.95986442    -0.85600
O1227       O  0.92307956  0.34775713  0.98073615    -0.82700
C1228       C  0.91755505  0.32869143  0.96149950     0.97800
O1229       O  0.89367048  0.30599752  0.96186334    -0.82700
O1230       O  0.83622776  0.26976082  0.97242955    -0.85300
C1231       C  0.82239966  0.27703875  0.95530257     1.02300
O1232       O  0.82283886  0.30017227  0.95940218    -0.78200
O1233       O  0.84477466  0.35624737  0.97306055    -0.78300
C1234       C  0.86588917  0.36879839  0.95545805     1.02300
Cr1235     Cr  0.89537498  0.35746720  0.50045387     1.93700
Cr1236     Cr  0.87021930  0.29364160  0.99893570     1.93200
Cr1237     Cr  0.83102259  0.31934504  0.49749761     1.39100
O1238       O  0.86520259  0.32300224  0.49872192    -1.23400
O1239       O  0.60732134  0.08410824  0.71036003    -0.85600
O1240       O  0.62645308  0.04899508  0.73214909    -0.82700
C1241       C  0.64542787  0.05340807  0.71325252     0.97800
O1242       O  0.66852178  0.07700287  0.71310921    -0.82700
O1243       O  0.70505256  0.13483828  0.72158239    -0.85400
C1244       C  0.69730435  0.14781848  0.70376476     1.02300
O1245       O  0.67459676  0.14813083  0.70832264    -0.78100
O1246       O  0.61909685  0.12764635  0.72325330    -0.78300
C1247       C  0.60627271  0.10648782  0.70576763     1.02300
O1248       O  0.59840911  0.09578025  0.77026762    -0.85600
O1249       O  0.62439093  0.06721692  0.79091913    -0.82700
C1250       C  0.64329191  0.06078349  0.79578847     0.97800
O1251       O  0.66369582  0.06798732  0.77750501    -0.82700
O1252       O  0.69691782  0.12572936  0.78570018    -0.85300
C1253       C  0.70203061  0.15099468  0.78805727     1.02300
O1254       O  0.69172004  0.16075857  0.76940558    -0.78200
O1255       O  0.63522012  0.13517210  0.78596482    -0.78300
C1256       C  0.60945063  0.11593759  0.78891496     1.02300
Cr1257     Cr  0.61672161  0.07620798  0.75068600     1.93700
Cr1258     Cr  0.68141335  0.10182378  0.74935597     1.93200
Cr1259     Cr  0.65494770  0.14041759  0.74695356     1.39100
O1260       O  0.65126778  0.10625598  0.74884347    -1.23400
O1261       O  0.89355890  0.51773273  0.70940718    -0.85600
O1262       O  0.93240057  0.57203516  0.72994184    -0.82700
C1263       C  0.92879313  0.58758834  0.71176358     0.97800
O1264       O  0.90604937  0.58841485  0.71241832    -0.82700
O1265       O  0.84904433  0.56981828  0.72188731    -0.85400
C1266       C  0.83435021  0.54872833  0.70465070     1.02300
O1267       O  0.83264973  0.52504296  0.70931396    -0.78100
O1268       O  0.84993812  0.48736399  0.72383312    -0.78300
C1269       C  0.87046310  0.49443196  0.70583980     1.02300
O1270       O  0.88290346  0.49812112  0.76968213    -0.85600
O1271       O  0.91526591  0.55289211  0.78884508    -0.82700
C1272       C  0.92325877  0.57861811  0.79416307     0.97800
O1273       O  0.91654010  0.59273298  0.77670945    -0.82700
O1274       O  0.85913288  0.57126487  0.78605860    -0.85300
C1275       C  0.83317534  0.55232262  0.78831871     1.02300
O1276       O  0.82235944  0.53144061  0.77042793    -0.78200
O1277       O  0.84541272  0.49820635  0.78669208    -0.78300
C1278       C  0.86369691  0.49057101  0.78920483     1.02300
Cr1279     Cr  0.90391113  0.53575180  0.74926058     1.93700
Cr1280     Cr  0.88212877  0.57787488  0.74917986     1.93200
Cr1281     Cr  0.84020728  0.51275494  0.74774357     1.39100
O1282       O  0.87534461  0.54231199  0.74864516    -1.23400
O1283       O  0.47920623  0.09650707  0.51967289    -0.85600
O1284       O  0.42395579  0.06783489  0.53847474    -0.82700
C1285       C  0.39881440  0.06211421  0.54356458     0.97800
O1286       O  0.38594639  0.06960218  0.52523956    -0.82700
O1287       O  0.41133125  0.12703331  0.53679158    -0.85400
C1288       C  0.43188675  0.15218822  0.54012143     1.02300
O1289       O  0.45273613  0.16229652  0.52223567    -0.78100
O1290       O  0.48254345  0.13549057  0.53716018    -0.78300
C1291       C  0.48833752  0.11583539  0.53927510     1.02300
O1292       O  0.46016846  0.08856018  0.95914023    -0.85600
O1293       O  0.40479171  0.05294413  0.97862429    -0.82700
C1294       C  0.39228636  0.05952248  0.95924450     0.97800
O1295       O  0.39328561  0.08314044  0.96098635    -0.82700
O1296       O  0.41464710  0.14000971  0.97340472    -0.85300
C1297       C  0.43579615  0.15354287  0.95600602     1.02300
O1298       O  0.45855124  0.15323889  0.96030568    -0.78200
O1299       O  0.49269898  0.13146989  0.97370647    -0.78300
C1300       C  0.48414794  0.11084003  0.95545420     1.02300
Cr1301     Cr  0.44160820  0.07847574  0.49885672     1.93700
Cr1302     Cr  0.40389271  0.10533610  0.99905572     1.93200
Cr1303     Cr  0.46924776  0.14299595  0.49856885     1.39100
O1304       O  0.43810670  0.10897320  0.49878808    -1.23400
O1305       O  0.60811508  0.49535852  0.51837871    -0.85600
O1306       O  0.63174916  0.54956563  0.54143964    -0.82700
C1307       C  0.64905038  0.57562527  0.54632755     0.97800
O1308       O  0.66904280  0.59044151  0.52797683    -0.82700
O1309       O  0.70658599  0.57109388  0.53509110    -0.85400
C1310       C  0.71265697  0.55166781  0.53770571     1.02300
O1311       O  0.70237846  0.53080013  0.51975239    -0.78100
O1312       O  0.64583845  0.49561185  0.53470839    -0.78300
C1313       C  0.61955179  0.48690330  0.53698017     1.02300
O1314       O  0.61617728  0.51723662  0.96099523    -0.85600
O1315       O  0.63264441  0.57068915  0.98363852    -0.82700
C1316       C  0.65027426  0.58488244  0.96345181     0.97800
O1317       O  0.67415582  0.58627143  0.96303214    -0.82700
O1318       O  0.71394028  0.56931626  0.97172422    -0.85300
C1319       C  0.70748737  0.54871142  0.95396905     1.02300
O1320       O  0.68559280  0.52465038  0.95848262    -0.78200
O1321       O  0.63012911  0.48692371  0.97247612    -0.78300
C1322       C  0.61632610  0.49450075  0.95568169     1.02300
Cr1323     Cr  0.62494421  0.53409654  0.50075697     1.93700
Cr1324     Cr  0.68883583  0.57640124  0.99943579     1.93200
Cr1325     Cr  0.66624350  0.51235244  0.49610426     1.39100
O1326       O  0.66036354  0.54135996  0.49858622    -1.23400
O1327       O  0.46872284  0.37071033  0.70877920    -0.85600
O1328       O  0.41415575  0.35341725  0.72891020    -0.82700
C1329       C  0.39928402  0.33392460  0.71047079     0.97800
O1330       O  0.39873311  0.31047995  0.71175773    -0.82700
O1331       O  0.41809045  0.27312718  0.72316361    -0.85400
C1332       C  0.43886573  0.27988312  0.70555518     1.02300
O1333       O  0.46225316  0.30273106  0.70935322    -0.78100
O1334       O  0.49960868  0.35854763  0.72328497    -0.78300
C1335       C  0.49209060  0.37138130  0.70509495     1.02300
O1336       O  0.48828319  0.38061239  0.76924181    -0.85600
O1337       O  0.43306239  0.35686001  0.78847703    -0.82700
C1338       C  0.40718547  0.33868120  0.79316461     0.97800
O1339       O  0.39376959  0.31747753  0.77572354    -0.82700
O1340       O  0.41676897  0.28314469  0.78662199    -0.85300
C1341       C  0.43611487  0.27692605  0.78917220     1.02300
O1342       O  0.45665768  0.28687700  0.77088654    -0.78200
O1343       O  0.48960072  0.34364320  0.78601292    -0.78300
C1344       C  0.49685089  0.36954823  0.78830485     1.03500
Cr1345     Cr  0.45060174  0.36278536  0.74874495     1.93700
Cr1346     Cr  0.40948654  0.29823821  0.74923796     1.93200
Cr1347     Cr  0.47472920  0.32323260  0.74752133     1.39100
O1348       O  0.44480939  0.32787704  0.74852925    -1.23400
O1349       O  0.10134760  0.60288760  0.52449663    -0.85600
O1350       O  0.07362774  0.63042445  0.54335515    -0.82700
C1351       C  0.06722902  0.64952926  0.54659916     0.97800
O1352       O  0.07420710  0.66886397  0.52703942    -0.82700
O1353       O  0.13164641  0.70262677  0.53609159    -0.85400
C1354       C  0.15673377  0.70757743  0.53972875     1.02300
O1355       O  0.16662726  0.69578644  0.52312084    -0.78100
O1356       O  0.14071181  0.63941143  0.54042803    -0.78300
C1357       C  0.12123874  0.61375129  0.54338038     1.02300
O1358       O  0.09104483  0.61069301  0.96402138    -0.85600
O1359       O  0.05623174  0.63070148  0.98389337    -0.82700
C1360       C  0.06144961  0.64812182  0.96294020     0.97800
O1361       O  0.08495050  0.67124188  0.96254377    -0.82700
O1362       O  0.14212891  0.70882029  0.97234468    -0.85300
C1363       C  0.15631351  0.70136678  0.95604234     1.02300
O1364       O  0.15687491  0.67895644  0.96172862    -0.78200
O1365       O  0.13498144  0.62311547  0.97656260    -0.78300
C1366       C  0.11332620  0.60938384  0.95975627     1.02300
Cr1367     Cr  0.08248548  0.62121451  0.50383799     1.93700
Cr1368     Cr  0.10865574  0.68550266  0.99944814     1.93200
Cr1369     Cr  0.14690650  0.65875627  0.50086444     1.39100
O1370       O  0.11286799  0.65548022  0.50130538    -1.23400
O1371       O  0.38180191  0.88886547  0.72495429    -0.85600
O1372       O  0.35361174  0.91743685  0.71034612    -0.82700
C1373       C  0.33467583  0.92420119  0.70862246     0.97800
O1374       O  0.31332883  0.91315466  0.72603168    -0.82700
O1375       O  0.28161883  0.85586060  0.71235304    -0.85400
C1376       C  0.27798937  0.83142336  0.70722224     1.02300
O1377       O  0.28956021  0.82105154  0.72347604    -0.78100
O1378       O  0.34625650  0.84790283  0.71023996    -0.78300
C1379       C  0.37179712  0.86758982  0.70761486     1.02300
O1380       O  0.37276249  0.89547982  0.78644817    -0.85600
O1381       O  0.35064686  0.92958434  0.77161345    -0.82700
C1382       C  0.33122042  0.92189986  0.79094786     0.97800
O1383       O  0.30889154  0.89777940  0.78901590    -0.82700
O1384       O  0.27295619  0.84129560  0.77455556    -0.85300
C1385       C  0.28006649  0.82661223  0.79036830     1.02300
O1386       O  0.30351294  0.82776962  0.78605401    -0.78200
O1387       O  0.36033929  0.85184934  0.77290455    -0.78300
C1388       C  0.37429118  0.87329267  0.78978361     1.02300
Cr1389     Cr  0.36187498  0.90521600  0.74834769     1.93700
Cr1390     Cr  0.29666707  0.87680581  0.75039431     1.93200
Cr1391     Cr  0.32508352  0.83989896  0.74825141     1.39100
O1392       O  0.32774979  0.87380737  0.74888283    -1.23400
C1393       C  0.24476153  0.74081088  0.85354269    -0.18100
C1394       C  0.22723568  0.72320460  0.87643748    -0.20300
C1395       C  0.20844171  0.72962211  0.89126341     0.20400
C1396       C  0.20683994  0.75368429  0.88257385    -0.03200
C1397       C  0.22434273  0.77131754  0.85921012    -0.06300
C1398       C  0.24365849  0.76503405  0.84494141     0.20600
C1399       C  0.22277188  0.79539391  0.85040460     0.18800
C1400       C  0.20363153  0.80152192  0.86497363    -0.17800
C1401       C  0.18650292  0.78421186  0.88834448    -0.20000
C1402       C  0.18804469  0.76032740  0.89745242     0.20300
C1403       C  0.17139047  0.74315427  0.92133096    -0.33000
C1404       C  0.17315501  0.71928263  0.93036281     0.01000
C1405       C  0.19153115  0.71256179  0.91487347    -0.24300
C1406       C  0.26174487  0.78322145  0.82254645    -0.28900
C1407       C  0.26048552  0.80738805  0.81374940     0.06700
C1408       C  0.24061511  0.81308650  0.82748081    -0.27600
H1409       H  0.25933488  0.73558011  0.84269049     0.11400
H1410       H  0.22862898  0.70473083  0.88279124     0.12500
H1411       H  0.20211778  0.81989840  0.85849944     0.11600
H1412       H  0.17214274  0.78960522  0.89940844     0.10800
H1413       H  0.15718308  0.74844334  0.93292449     0.16200
H1414       H  0.19308560  0.69423059  0.92149050     0.12100
H1415       H  0.27674171  0.77848245  0.81182061     0.15000
H1416       H  0.23954153  0.83167869  0.82082893     0.14800
C1417       C  0.24555760  0.75076952  0.59870116    -0.18100
C1418       C  0.26229166  0.76772562  0.62238768    -0.20300
C1419       C  0.25285664  0.78250164  0.64025198     0.20400
C1420       C  0.22641548  0.78042793  0.63407363    -0.03200
C1421       C  0.20933120  0.76298112  0.61037365    -0.06300
C1422       C  0.21900947  0.74812027  0.59265566     0.20600
C1423       C  0.18253364  0.76022527  0.60457799     0.18800
C1424       C  0.17326316  0.77527698  0.62232002    -0.17800
C1425       C  0.19038931  0.79290548  0.64557939    -0.20000
C1426       C  0.21697736  0.79559594  0.65169448     0.20300
C1427       C  0.23420446  0.81292191  0.67523461    -0.33000
C1428       C  0.26021450  0.81442524  0.68183763     0.01000
C1429       C  0.26935352  0.79916295  0.66430038    -0.24300
C1430       C  0.20189952  0.73060293  0.56937891    -0.28900
C1431       C  0.17496747  0.72732435  0.56362579     0.06700
C1432       C  0.16544918  0.74231451  0.58131399    -0.27600
H1433       H  0.25327920  0.73950873  0.58525993     0.11400
H1434       H  0.28260901  0.76923363  0.62678285     0.12500
H1435       H  0.15275179  0.77341599  0.61820867     0.11600
H1436       H  0.18274392  0.80429058  0.65892239     0.10800
H1437       H  0.22709689  0.82460198  0.68889035     0.16200
H1438       H  0.28954994  0.80054758  0.66924089     0.12100
H1439       H  0.20944865  0.71912902  0.55602061     0.15000
H1440       H  0.14473695  0.73996633  0.57708980     0.14800
C1441       C  0.58014763  0.40604222  0.89610803    -0.18100
C1442       C  0.56339094  0.38840100  0.87269939    -0.20300
C1443       C  0.54786235  0.39662887  0.85436559     0.20400
C1444       C  0.54940412  0.42299829  0.85962423    -0.03200
C1445       C  0.56618884  0.44070919  0.88324538    -0.06300
C1446       C  0.58162177  0.43218678  0.90159159     0.20600
C1447       C  0.56741114  0.46690129  0.88854213     0.18800
C1448       C  0.55200072  0.47522478  0.87022655    -0.17800
C1449       C  0.53546471  0.45774484  0.84678584    -0.20000
C1450       C  0.53404927  0.43166010  0.84137941     0.20300
C1451       C  0.51734386  0.41405107  0.81810709    -0.33000
C1452       C  0.51539761  0.38763895  0.81277561     0.01000
C1453       C  0.53070930  0.37898147  0.83099041    -0.24300
C1454       C  0.59814918  0.44992588  0.92513137    -0.28900
C1455       C  0.59935776  0.47603289  0.93056571     0.06700
C1456       C  0.58394212  0.48433147  0.91210601    -0.27600
H1457       H  0.59188850  0.39919427  0.90998783     0.11400
H1458       H  0.56252403  0.36828813  0.86898419     0.12500
H1459       H  0.55272358  0.49525920  0.87404359     0.11600
H1460       H  0.52370751  0.46459259  0.83292586     0.10800
H1461       H  0.50545677  0.42083692  0.80434643     0.16200
H1462       H  0.52933476  0.35866745  0.82694506     0.12100
H1463       H  0.60993756  0.44332244  0.93928044     0.15000
H1464       H  0.58472039  0.50438102  0.91609101     0.14800
C1465       C  0.58843024  0.42462156  0.65974660    -0.18100
C1466       C  0.60635514  0.44035417  0.63604854    -0.20300
C1467       C  0.59506051  0.44536591  0.61009522     0.20400
C1468       C  0.56531721  0.43428152  0.60810082    -0.03200
C1469       C  0.54727775  0.41867377  0.63210746    -0.06300
C1470       C  0.55887772  0.41373750  0.65802241     0.20600
C1471       C  0.51765185  0.40818522  0.63021472     0.18800
C1472       C  0.50626862  0.41296770  0.60425099    -0.17800
C1473       C  0.52406554  0.42819754  0.58042972    -0.20000
C1474       C  0.55357352  0.43906231  0.58225303     0.20300
C1475       C  0.57153629  0.45514957  0.55885834    -0.33000
C1476       C  0.60132301  0.46708723  0.56083432     0.01000
C1477       C  0.61293838  0.46170689  0.58638637    -0.24300
C1478       C  0.54071614  0.39808876  0.68172999    -0.28900
C1479       C  0.51118215  0.38780845  0.68006789     0.06700
C1480       C  0.49989237  0.39310658  0.65427900    -0.27600
H1481       H  0.59771675  0.42109247  0.67951457     0.11400
H1482       H  0.62908846  0.44869123  0.63807600     0.12500
H1483       H  0.48358450  0.40498456  0.60238906     0.11600
H1484       H  0.51477126  0.43173441  0.56066864     0.10800
H1485       H  0.56222529  0.45895433  0.53926231     0.16200
H1486       H  0.63582442  0.47088864  0.58819727     0.12100
H1487       H  0.54960678  0.39423241  0.70163666     0.15000
H1488       H  0.47716825  0.38510094  0.65276032     0.14800
C1489       C  0.34151290  0.96076001  0.92232737    -0.18100
C1490       C  0.33285091  0.94131667  0.89866205    -0.20300
C1491       C  0.33657816  0.95085960  0.86901385     0.20400
C1492       C  0.34853045  0.98027434  0.86317527    -0.03200
C1493       C  0.35678368  0.99986456  0.88710494    -0.06300
C1494       C  0.35375274  0.99005080  0.91676859     0.20600
C1495       C  0.36898811  0.02932347  0.88133283     0.18800
C1496       C  0.37244360  0.03881632  0.85165420    -0.17800
C1497       C  0.36472231  0.01945729  0.82793560    -0.20000
C1498       C  0.35309360  0.99021505  0.83345765     0.20300
C1499       C  0.34670121  0.97083573  0.80987410    -0.33000
C1500       C  0.33507728  0.94157953  0.81559668     0.01000
C1501       C  0.32941759  0.93163148  0.84513860    -0.24300
C1502       C  0.36404328  0.00976468  0.94030824    -0.28900
C1503       C  0.37703596  0.03918016  0.93473540     0.06700
C1504       C  0.37862313  0.04880663  0.90527815    -0.27600
H1505       H  0.33900697  0.95291126  0.94500538     0.11400
H1506       H  0.32378516  0.91885504  0.90354739     0.12500
H1507       H  0.38175680  0.06130683  0.84677220     0.11600
H1508       H  0.36821344  0.02742144  0.80523912     0.10800
H1509       H  0.35103458  0.97849582  0.78703751     0.16200
H1510       H  0.32078636  0.90912894  0.84955777     0.12100
H1511       H  0.36275834  0.00229278  0.96301890     0.15000
H1512       H  0.38896671  0.07149770  0.90088522     0.14800
C1513       C  0.40017323  0.01933092  0.66976535    -0.18100
C1514       C  0.40913708  0.03907415  0.64651402    -0.20300
C1515       C  0.39154653  0.03398066  0.62160275     0.20400
C1516       C  0.36398684  0.00962445  0.62078434    -0.03200
C1517       C  0.35488831  0.98966759  0.64434670    -0.06300
C1518       C  0.37347761  0.99424597  0.66844525     0.20600
C1519       C  0.32789645  0.96446902  0.64303175     0.18800
C1520       C  0.30981288  0.96019108  0.61871285    -0.17800
C1521       C  0.31888914  0.97997836  0.59526156    -0.20000
C1522       C  0.34620007  0.00444481  0.59571682     0.20300
C1523       C  0.35670646  0.02297280  0.57097101    -0.33000
C1524       C  0.38493158  0.04604578  0.57101045     0.01000
C1525       C  0.40173343  0.05197709  0.59679824    -0.24300
C1526       C  0.36571517  0.97303760  0.69002980    -0.28900
C1527       C  0.33959082  0.94735123  0.68809674     0.06700
C1528       C  0.32019412  0.94348384  0.66527166    -0.27600
H1529       H  0.41451369  0.02322820  0.68831042     0.11400
H1530       H  0.43025152  0.05784037  0.64752347     0.12500
H1531       H  0.28897421  0.94109711  0.61736959     0.11600
H1532       H  0.30486146  0.97569770  0.57633448     0.10800
H1533       H  0.34373666  0.01836673  0.55106401     0.16200
H1534       H  0.42339262  0.06998514  0.59696334     0.12100
H1535       H  0.38047693  0.97603361  0.70789477     0.15000
H1536       H  0.30002027  0.92359459  0.66386629     0.14800
C1537       C  0.38675401  0.18827056  0.64973852    -0.18100
C1538       C  0.38591477  0.17029619  0.62679414    -0.20300
C1539       C  0.40916747  0.17917350  0.60735191     0.20400
C1540       C  0.43350347  0.20646740  0.61115292    -0.03200
C1541       C  0.43435527  0.22457149  0.63427444    -0.06300
C1542       C  0.41087817  0.21546383  0.65370070     0.20600
C1543       C  0.45877796  0.25177070  0.63795580     0.18800
C1544       C  0.48207691  0.26069921  0.61866129    -0.17800
C1545       C  0.48123545  0.24281365  0.59581553    -0.20000
C1546       C  0.45706292  0.21572081  0.59187514     0.20300
C1547       C  0.45613165  0.19780275  0.56892371    -0.33000
C1548       C  0.43197774  0.17057089  0.56473628     0.01000
C1549       C  0.40856223  0.16133718  0.58418728    -0.24300
C1550       C  0.41207804  0.23363615  0.67680198    -0.28900
C1551       C  0.43654538  0.26073980  0.68069867     0.06700
C1552       C  0.45966075  0.26958490  0.66096923    -0.27600
H1553       H  0.36853363  0.18087221  0.66442259     0.11400
H1554       H  0.36704463  0.14942387  0.62425619     0.12500
H1555       H  0.50099810  0.28153232  0.62126456     0.11600
H1556       H  0.49950434  0.25018694  0.58120026     0.10800
H1557       H  0.47440155  0.20516473  0.55429301     0.16200
H1558       H  0.38988448  0.14037653  0.58126358     0.12100
H1559       H  0.39415968  0.22657710  0.69186842     0.15000
H1560       H  0.47861498  0.29040594  0.66359409     0.14800
C1561       C  0.48091293  0.23094420  0.84414674    -0.18100
C1562       C  0.48078926  0.21366903  0.86730549    -0.20300
C1563       C  0.45757059  0.20048606  0.88697094     0.20400
C1564       C  0.43410853  0.20451105  0.88313693    -0.03200
C1565       C  0.43424708  0.22201729  0.85972026    -0.06300
C1566       C  0.45781295  0.23533037  0.84023918     0.20600
C1567       C  0.41095153  0.22636118  0.85595651     0.18800
C1568       C  0.38761380  0.21288524  0.87549055    -0.17800
C1569       C  0.38745357  0.19549013  0.89866918    -0.20000
C1570       C  0.41065159  0.19125841  0.90281232     0.20300
C1571       C  0.41096539  0.17428788  0.92640371    -0.33000
C1572       C  0.43454877  0.17055020  0.93064034     0.01000
C1573       C  0.45761076  0.18359313  0.91055306    -0.24300
C1574       C  0.45801024  0.25293826  0.81727791    -0.28900
C1575       C  0.43501233  0.25765749  0.81338441     0.06700
C1576       C  0.41149345  0.24419462  0.83286449    -0.27600
H1577       H  0.49916004  0.24099016  0.82935750     0.11400
H1578       H  0.49895395  0.21074309  0.86993427     0.12500
H1579       H  0.36949895  0.21589561  0.87292565     0.11600
H1580       H  0.36922912  0.18547608  0.91348473     0.10800
H1581       H  0.39305192  0.16431996  0.94163431     0.16200
H1582       H  0.47584035  0.18078159  0.91333857     0.12100
H1583       H  0.47630340  0.26318387  0.80255012     0.15000
H1584       H  0.39364692  0.24761636  0.83011319     0.14800
C1585       C  0.97321573  0.57495325  0.91578126    -0.18100
C1586       C  0.95380566  0.56525363  0.89222601    -0.20300
C1587       C  0.95670163  0.58374262  0.86897305     0.20400
C1588       C  0.97903385  0.61242048  0.86953017    -0.03200
C1589       C  0.99883810  0.62217571  0.89326196    -0.06300
C1590       C  0.99588413  0.60322400  0.91629830     0.20600
C1591       C  0.02189400  0.65056512  0.89359837     0.18800
C1592       C  0.02434990  0.66912362  0.87046594    -0.17800
C1593       C  0.00453992  0.65946871  0.84693847    -0.20000
C1594       C  0.98195695  0.63105014  0.84605441     0.20300
C1595       C  0.96274700  0.62058509  0.82180729    -0.33000
C1596       C  0.94117258  0.59166435  0.82082552     0.01000
C1597       C  0.93803527  0.57367777  0.84477554    -0.24300
C1598       C  0.01600002  0.61252334  0.93918090    -0.28900
C1599       C  0.03959929  0.64042830  0.93940392     0.06700
C1600       C  0.04230701  0.65955658  0.91669284    -0.27600
H1601       H  0.97076009  0.56020586  0.93336854     0.11400
H1602       H  0.93672119  0.54317607  0.89200399     0.12500
H1603       H  0.04179925  0.69101628  0.87036610     0.11600
H1604       H  0.00715200  0.67411942  0.82918522     0.10800
H1605       H  0.96534707  0.63446659  0.80323439     0.16200
H1606       H  0.92129084  0.55142820  0.84424020     0.12100
H1607       H  0.01361776  0.59752264  0.95646248     0.15000
H1608       H  0.06037823  0.68113221  0.91674970     0.14800
C1609       C  0.04518668  0.62801281  0.65279412    -0.18100
C1610       C  0.02573091  0.61975721  0.67629425    -0.20300
C1611       C  0.99957635  0.61861573  0.67231148     0.20400
C1612       C  0.99350475  0.62727371  0.64498235    -0.03200
C1613       C  0.01331050  0.63594931  0.62135459    -0.06300
C1614       C  0.03887026  0.63550573  0.62508794     0.20600
C1615       C  0.00693099  0.64372590  0.59359147     0.18800
C1616       C  0.98119484  0.64355864  0.59006175    -0.17800
C1617       C  0.96141929  0.63468096  0.61343548    -0.20000
C1618       C  0.96710596  0.62595938  0.64079002     0.20300
C1619       C  0.94637208  0.61460647  0.66344843    -0.33000
C1620       C  0.95173675  0.60431235  0.68997879     0.01000
C1621       C  0.97882464  0.60753307  0.69465868    -0.24300
C1622       C  0.05704274  0.64130562  0.60068659    -0.28900
C1623       C  0.05028990  0.64803999  0.57277438     0.06700
C1624       C  0.02578401  0.65022042  0.56951860    -0.27600
H1625       H  0.06483835  0.62782673  0.65604957     0.11400
H1626       H  0.03072337  0.61333233  0.69726629     0.12500
H1627       H  0.97599298  0.64952116  0.56893128     0.11600
H1628       H  0.94135563  0.63395057  0.60985079     0.10800
H1629       H  0.92561772  0.61233963  0.65977436     0.16200
H1630       H  0.98335729  0.60012945  0.71527175     0.12100
H1631       H  0.07607405  0.63977592  0.60310924     0.15000
H1632       H  0.02053740  0.65519522  0.54783715     0.14800
C1633       C  0.79858857  0.60125341  0.64410019    -0.18100
C1634       C  0.78128866  0.60153535  0.62097177    -0.20300
C1635       C  0.76527174  0.57728455  0.60304985     0.20400
C1636       C  0.76690897  0.55259062  0.60847989    -0.03200
C1637       C  0.78426954  0.55228055  0.63182737    -0.06300
C1638       C  0.80016229  0.57668361  0.64983942     0.20600
C1639       C  0.78551938  0.52740829  0.63723265     0.18800
C1640       C  0.76966919  0.50318573  0.61935478    -0.17800
C1641       C  0.75257755  0.50350591  0.59628404    -0.20000
C1642       C  0.75105640  0.52805973  0.59069901     0.20300
C1643       C  0.73381567  0.52832651  0.56766637    -0.33000
C1644       C  0.73182291  0.55269430  0.56198745     0.01000
C1645       C  0.74760312  0.57716396  0.57989458    -0.24300
C1646       C  0.81701029  0.57588963  0.67339735    -0.28900
C1647       C  0.81798240  0.55089608  0.67913024     0.06700
C1648       C  0.80232437  0.52694008  0.66061121    -0.27600
H1649       H  0.81061941  0.62022215  0.65761468     0.11400
H1650       H  0.78038861  0.62073252  0.61715315     0.12500
H1651       H  0.77040884  0.48391302  0.62328789     0.11600
H1652       H  0.74048004  0.48449609  0.58283531     0.10800
H1653       H  0.72162744  0.50925377  0.55430870     0.16200
H1654       H  0.74620481  0.59605430  0.57578656     0.12100
H1655       H  0.82898668  0.59449862  0.68743084     0.15000
H1656       H  0.80288805  0.50756643  0.66455194     0.14800
C1657       C  0.72012888  0.51623129  0.85520481    -0.18100
C1658       C  0.73771858  0.51658986  0.83225033    -0.20300
C1659       C  0.76723383  0.53575378  0.83315373     0.20400
C1660       C  0.77909215  0.55524135  0.85704936    -0.03200
C1661       C  0.76126734  0.55495194  0.88023325    -0.06300
C1662       C  0.73172842  0.53504755  0.87946222     0.20600
C1663       C  0.77305638  0.57412529  0.90443853     0.18800
C1664       C  0.80254125  0.59367702  0.90495551    -0.17800
C1665       C  0.82022002  0.59388521  0.88203244    -0.20000
C1666       C  0.80876806  0.57462408  0.85805869     0.20300
C1667       C  0.82643150  0.57408194  0.83533741    -0.33000
C1668       C  0.81476527  0.55425869  0.81170662     0.01000
C1669       C  0.78506338  0.53539905  0.81076863    -0.24300
C1670       C  0.71437287  0.53378145  0.90327480    -0.28900
C1671       C  0.72596827  0.55224893  0.92793240     0.06700
C1672       C  0.75527099  0.57288223  0.92799870    -0.27600
H1673       H  0.69746306  0.50093351  0.85418435     0.11400
H1674       H  0.72826726  0.50159271  0.81396444     0.12500
H1675       H  0.81200674  0.60857746  0.92331391     0.11600
H1676       H  0.84292730  0.60897030  0.88320890     0.10800
H1677       H  0.84925789  0.58870294  0.83635445     0.16200
H1678       H  0.77572517  0.52014721  0.79266508     0.12100
H1679       H  0.69178023  0.51807479  0.90280494     0.15000
H1680       H  0.76440207  0.58720860  0.94687365     0.14800
C1681       C  0.50074064  0.06783240  0.86631945    -0.18100
C1682       C  0.51832218  0.06862602  0.84318135    -0.20300
C1683       C  0.54597256  0.09212295  0.83999333     0.20400
C1684       C  0.55611950  0.11506165  0.86026185    -0.03200
C1685       C  0.53832585  0.11427073  0.88364142    -0.06300
C1686       C  0.51053143  0.09051955  0.88663841     0.20600
C1687       C  0.54834251  0.13715858  0.90400838     0.18800
C1688       C  0.57607830  0.16060956  0.90079547    -0.17800
C1689       C  0.59375564  0.16136512  0.87762424    -0.20000
C1690       C  0.58400744  0.13870832  0.85721013     0.20300
C1691       C  0.60157787  0.13920041  0.83385676    -0.33000
C1692       C  0.59145172  0.11636443  0.81351185     0.01000
C1693       C  0.56360554  0.09296095  0.81686312    -0.24300
C1694       C  0.49300231  0.08974470  0.90995257    -0.28900
C1695       C  0.50278092  0.11236366  0.93049372     0.06700
C1696       C  0.53049219  0.13609806  0.92727127    -0.27600
H1697       H  0.47947305  0.04944473  0.86833639     0.11400
H1698       H  0.51028497  0.05083271  0.82776562     0.12500
H1699       H  0.58413028  0.17836652  0.91625149     0.11600
H1700       H  0.61506826  0.17968720  0.87567844     0.10800
H1701       H  0.62301259  0.15726681  0.83152790     0.16200
H1702       H  0.55555736  0.07511303  0.80150029     0.12100
H1703       H  0.47171370  0.07139485  0.91213656     0.15000
H1704       H  0.53827092  0.15365605  0.94297381     0.14800
C1705       C  0.53213199  0.06739004  0.59095440    -0.18100
C1706       C  0.54865051  0.06598232  0.61408904    -0.20300
C1707       C  0.56063325  0.08754463  0.63579018     0.20400
C1708       C  0.55589200  0.11076004  0.63415052    -0.03200
C1709       C  0.53913203  0.11213441  0.61085377    -0.06300
C1710       C  0.52730631  0.09037601  0.58915439     0.20600
C1711       C  0.53423777  0.13526082  0.60927976     0.18800
C1712       C  0.54614182  0.15675854  0.63106398    -0.17800
C1713       C  0.56287093  0.15547422  0.65407352    -0.20000
C1714       C  0.56786786  0.13259323  0.65577890     0.20300
C1715       C  0.58450972  0.13111445  0.67882816    -0.33000
C1716       C  0.58914418  0.10792351  0.68082673     0.01000
C1717       C  0.57716705  0.08624335  0.65913844    -0.24300
C1718       C  0.51090187  0.09196838  0.56596756    -0.28900
C1719       C  0.50601075  0.11501102  0.56403105     0.06700
C1720       C  0.51762686  0.13651438  0.58592528    -0.27600
H1721       H  0.52313532  0.05049195  0.57444163     0.11400
H1722       H  0.55205793  0.04801707  0.61500030     0.12500
H1723       H  0.54259043  0.17463370  0.63025757     0.11600
H1724       H  0.57187831  0.17237743  0.67057856     0.10800
H1725       H  0.59360097  0.14794235  0.69542918     0.16200
H1726       H  0.58071636  0.06837184  0.66039817     0.12100
H1727       H  0.50189023  0.07511355  0.54939160     0.15000
H1728       H  0.51383721  0.15423188  0.58475093     0.14800
C1729       C  0.74733486  0.24321517  0.84152600    -0.18100
C1730       C  0.76408768  0.26075907  0.86491142    -0.20300
C1731       C  0.77578066  0.25058777  0.88611902     0.20400
C1732       C  0.77033109  0.22238821  0.88396681    -0.03200
C1733       C  0.75336535  0.20464998  0.86037209    -0.06300
C1734       C  0.74198739  0.21520770  0.83898002     0.20600
C1735       C  0.74791459  0.17643900  0.85812538     0.18800
C1736       C  0.75920789  0.16614312  0.87967371    -0.17800
C1737       C  0.77608942  0.18375320  0.90302387    -0.20000
C1738       C  0.78193584  0.21195892  0.90527422     0.20300
C1739       C  0.79918555  0.22991562  0.92839770    -0.33000
C1740       C  0.80478994  0.25811091  0.93060967     0.01000
C1741       C  0.79287684  0.26818265  0.90937995    -0.24300
C1742       C  0.72551065  0.19762833  0.81537240    -0.28900
C1743       C  0.72013600  0.16952072  0.81275914     0.06700
C1744       C  0.73133756  0.15905890  0.83436139    -0.27600
H1745       H  0.73865225  0.25159886  0.82534963     0.11400
H1746       H  0.76800934  0.28234494  0.86633191     0.12500
H1747       H  0.75511546  0.14449334  0.87837651     0.11600
H1748       H  0.78467918  0.17533502  0.91926618     0.10800
H1749       H  0.80804501  0.22187135  0.94477043     0.16200
H1750       H  0.79699860  0.28984822  0.91084114     0.12100
H1751       H  0.71681111  0.20588265  0.79905069     0.15000
H1752       H  0.72712162  0.13737275  0.83274616     0.14800
C1753       C  0.80490067  0.20645101  0.62274555    -0.18100
C1754       C  0.78744713  0.18881998  0.64575572    -0.20300
C1755       C  0.75984294  0.18429168  0.64975461     0.20400
C1756       C  0.74959919  0.19730793  0.62999788    -0.03200
C1757       C  0.76717873  0.21506103  0.60679791    -0.06300
C1758       C  0.79505039  0.21984249  0.60329336     0.20600
C1759       C  0.75696507  0.22833024  0.58739185     0.18800
C1760       C  0.72924945  0.22349738  0.59102320    -0.17800
C1761       C  0.71186412  0.20594517  0.61397394    -0.20000
C1762       C  0.72193368  0.19297407  0.63367922     0.20300
C1763       C  0.70494907  0.17620466  0.65733623    -0.33000
C1764       C  0.71516182  0.16373452  0.67771830     0.01000
C1765       C  0.74251079  0.16747742  0.67345610    -0.24300
C1766       C  0.81263368  0.23815010  0.58062393    -0.28900
C1767       C  0.80265788  0.25171213  0.56140555     0.06700
C1768       C  0.77469722  0.24645991  0.56487443    -0.27600
H1769       H  0.82620851  0.20980535  0.62032447     0.11400
H1770       H  0.79566314  0.17896217  0.66063101     0.12500
H1771       H  0.72109075  0.23349135  0.57625647     0.11600
H1772       H  0.69062610  0.20275157  0.61650746     0.10800
H1773       H  0.68383182  0.17328597  0.66013083     0.16200
H1774       H  0.75054776  0.15787510  0.68891709     0.12100
H1775       H  0.83412211  0.24198844  0.57811456     0.15000
H1776       H  0.76674303  0.25673873  0.55022699     0.14800
C1777       C  0.81529319  0.42495156  0.87427461    -0.18100
C1778       C  0.81555570  0.40757163  0.89719772    -0.20300
C1779       C  0.83984636  0.40534360  0.90229264     0.20400
C1780       C  0.86407894  0.42072757  0.88406366    -0.03200
C1781       C  0.86379130  0.43819428  0.86092769    -0.06300
C1782       C  0.83928869  0.44036537  0.85598711     0.20600
C1783       C  0.88804721  0.45345603  0.84274127     0.18800
C1784       C  0.91237977  0.45136244  0.84783145    -0.17800
C1785       C  0.91267554  0.43411922  0.87074703    -0.20000
C1786       C  0.88865292  0.41871193  0.88894363     0.20300
C1787       C  0.88889894  0.40147045  0.91202076    -0.33000
C1788       C  0.86495803  0.38621420  0.93050624     0.01000
C1789       C  0.84041820  0.38815883  0.92537111    -0.24300
C1790       C  0.83921470  0.45775930  0.83277109    -0.28900
C1791       C  0.86323890  0.47264961  0.81429485     0.06700
C1792       C  0.88758147  0.47047137  0.81964449    -0.27600
H1793       H  0.79628894  0.42629948  0.87082514     0.11400
H1794       H  0.79675488  0.39589921  0.91098988     0.12500
H1795       H  0.93118385  0.46303032  0.83403639     0.11600
H1796       H  0.93171281  0.43283472  0.87423805     0.10800
H1797       H  0.90789553  0.40014200  0.91571799     0.16200
H1798       H  0.82181320  0.37646101  0.93944016     0.12100
H1799       H  0.82042099  0.45938697  0.82883737     0.15000
H1800       H  0.90636900  0.48213912  0.80579906     0.14800
C1801       C  0.90804769  0.47550169  0.61407953    -0.18100
C1802       C  0.90589201  0.45738759  0.59088105    -0.20300
C1803       C  0.88261631  0.42944799  0.58943992     0.20400
C1804       C  0.86133861  0.41945876  0.61158371    -0.03200
C1805       C  0.86347596  0.43782183  0.63500745    -0.06300
C1806       C  0.88694107  0.46596630  0.63616255     0.20600
C1807       C  0.84216632  0.42809744  0.65715471     0.18800
C1808       C  0.81907512  0.39995533  0.65582276    -0.17800
C1809       C  0.81702021  0.38167623  0.63261480    -0.20000
C1810       C  0.83796925  0.39123283  0.61026232     0.20300
C1811       C  0.83604585  0.37321496  0.58661046    -0.33000
C1812       C  0.85719921  0.38329431  0.56433018     0.01000
C1813       C  0.88037010  0.41142578  0.56611635    -0.24300
C1814       C  0.88895563  0.48418082  0.65931939    -0.28900
C1815       C  0.86777895  0.47483825  0.68140743     0.06700
C1816       C  0.84437997  0.44671395  0.68017350    -0.27600
H1817       H  0.92619749  0.49702215  0.61469426     0.11400
H1818       H  0.92242374  0.46526347  0.57400556     0.12500
H1819       H  0.80256278  0.39208930  0.67271260     0.11600
H1820       H  0.79897452  0.36009861  0.63208641     0.10800
H1821       H  0.81823087  0.35151866  0.58555782     0.16200
H1822       H  0.89697221  0.41946977  0.54929631     0.12100
H1823       H  0.90702372  0.50576421  0.66002593     0.15000
H1824       H  0.82800931  0.43924130  0.69721070     0.14800
C1825       C  0.63573444  0.95996967  0.86794785    -0.18100
C1826       C  0.64429841  0.97955373  0.84435912    -0.20300
C1827       C  0.63982232  0.00280108  0.84573303     0.20400
C1828       C  0.62718077  0.00667911  0.87147393    -0.03200
C1829       C  0.61887309  0.98714080  0.89537133    -0.06300
C1830       C  0.62275717  0.96339260  0.89347327     0.20600
C1831       C  0.60595907  0.99099363  0.92081551     0.18800
C1832       C  0.60175210  0.01436435  0.92245796    -0.17800
C1833       C  0.60963162  0.03346996  0.89869130    -0.20000
C1834       C  0.62203905  0.02962014  0.87301790     0.20300
C1835       C  0.62850888  0.04779170  0.84850326    -0.33000
C1836       C  0.64038198  0.04366622  0.82249963     0.01000
C1837       C  0.64679288  0.02165823  0.82149396    -0.24300
C1838       C  0.61291390  0.94318756  0.91676210    -0.28900
C1839       C  0.59942791  0.94666472  0.94191507     0.06700
C1840       C  0.59667098  0.97101036  0.94389167    -0.27600
H1841       H  0.63896947  0.94194448  0.86606477     0.11400
H1842       H  0.65393854  0.97620626  0.82478501     0.12500
H1843       H  0.59185419  0.01756378  0.94191082     0.11600
H1844       H  0.60564377  0.05103621  0.90021658     0.10800
H1845       H  0.62372788  0.06487406  0.84936869     0.16200
H1846       H  0.65575547  0.01832593  0.80133764     0.12100
H1847       H  0.61508755  0.92450404  0.91496284     0.15000
H1848       H  0.58633552  0.97404194  0.96307256     0.14800
C1849       C  0.65886724  0.99653410  0.59873324    -0.18100
C1850       C  0.66803036  0.01686995  0.62166458    -0.20300
C1851       C  0.65028104  0.01285307  0.64617870     0.20400
C1852       C  0.62354779  0.98743788  0.64818428    -0.03200
C1853       C  0.61423946  0.96705119  0.62502404    -0.06300
C1854       C  0.63173382  0.97189533  0.59983652     0.20600
C1855       C  0.58676625  0.94257848  0.62635464     0.18800
C1856       C  0.56947853  0.93782816  0.65139985    -0.17800
C1857       C  0.57881595  0.95784213  0.67444566    -0.20000
C1858       C  0.60547410  0.98295678  0.67265487     0.20300
C1859       C  0.61373311  0.00416627  0.69432349    -0.33000
C1860       C  0.63958261  0.03027962  0.69179815     0.01000
C1861       C  0.65818989  0.03419920  0.66806697    -0.24300
C1862       C  0.62104655  0.95293156  0.57550493    -0.28900
C1863       C  0.59286246  0.92986682  0.57594799     0.06700
C1864       C  0.57633460  0.92416749  0.60186195    -0.27600
H1865       H  0.67263809  0.00054256  0.57965892     0.11400
H1866       H  0.68870442  0.03610195  0.61982820     0.12500
H1867       H  0.54839102  0.91906720  0.65274049     0.11600
H1868       H  0.56478979  0.95410663  0.69322774     0.10800
H1869       H  0.59931152  0.00064429  0.71266940     0.16200
H1870       H  0.67823324  0.05413196  0.66604980     0.12100
H1871       H  0.63376244  0.95734252  0.55545261     0.15000
H1872       H  0.55468401  0.90616375  0.60229706     0.14800
C1873       C  0.45634422  0.92435475  0.85777889    -0.18100
C1874       C  0.47365280  0.92421164  0.88079434    -0.20300
C1875       C  0.46863887  0.89834422  0.89308163     0.20400
C1876       C  0.44632130  0.87234251  0.88168300    -0.03200
C1877       C  0.42902575  0.87247873  0.85827393    -0.06300
C1878       C  0.43385008  0.89863363  0.84658485     0.20600
C1879       C  0.40667069  0.84647524  0.84688727     0.18800
C1880       C  0.40198323  0.82060824  0.85883083    -0.17800
C1881       C  0.41895895  0.82048208  0.88223209    -0.20000
C1882       C  0.44101210  0.84621119  0.89394233     0.20300
C1883       C  0.45761387  0.84625871  0.91791712    -0.33000
C1884       C  0.47964199  0.87207607  0.92967450     0.01000
C1885       C  0.48528563  0.89803510  0.91683432    -0.24300
C1886       C  0.41587873  0.89863011  0.82418062    -0.28900
C1887       C  0.39333568  0.87283141  0.81299230     0.06700
C1888       C  0.38914254  0.84681553  0.82409025    -0.27600
H1889       H  0.46040880  0.94460455  0.84889723     0.11400
H1890       H  0.49075315  0.94434867  0.88922830     0.12500
H1891       H  0.38496093  0.80047013  0.85031227     0.11600
H1892       H  0.41470381  0.80023934  0.89132067     0.10800
H1893       H  0.45333607  0.82615729  0.92746237     0.16200
H1894       H  0.50226000  0.91804307  0.92570935     0.12100
H1895       H  0.41948001  0.91876413  0.81539882     0.15000
H1896       H  0.37182933  0.82687143  0.81549650     0.14800
C1897       C  0.47684282  0.91084570  0.62441305    -0.18100
C1898       C  0.46049747  0.91206333  0.64784270    -0.20300
C1899       C  0.43433410  0.88795786  0.65543107     0.20400
C1900       C  0.42499394  0.86211064  0.63987704    -0.03200
C1901       C  0.44169323  0.86076719  0.61647581    -0.06300
C1902       C  0.46741327  0.88543360  0.60835948     0.20600
C1903       C  0.43233879  0.83494787  0.60077442     0.18800
C1904       C  0.40654463  0.81067065  0.60894006    -0.17800
C1905       C  0.38982543  0.81209846  0.63189085    -0.20000
C1906       C  0.39869490  0.83777909  0.64725195     0.20300
C1907       C  0.38150901  0.83967547  0.66947546    -0.33000
C1908       C  0.39037730  0.86552760  0.68468297     0.01000
C1909       C  0.41710908  0.88941952  0.67787533    -0.24300
C1910       C  0.48293690  0.88442796  0.58392224    -0.28900
C1911       C  0.47350002  0.85898100  0.56780899     0.06700
C1912       C  0.44859236  0.83409530  0.57676627    -0.27600
H1913       H  0.49671138  0.92988709  0.61861176     0.11400
H1914       H  0.46807325  0.93201728  0.65967101     0.12500
H1915       H  0.39904272  0.79067361  0.59722343     0.11600
H1916       H  0.36977179  0.79316470  0.63740670     0.10800
H1917       H  0.36114568  0.82102930  0.67482190     0.16200
H1918       H  0.42424541  0.90938338  0.68955694     0.12100
H1919       H  0.50239925  0.90355746  0.57725833     0.15000
H1920       H  0.44131893  0.81448915  0.56432776     0.14800
C1921       C  0.06262374  0.51776745  0.86040932    -0.18100
C1922       C  0.06262583  0.53523723  0.88327330    -0.20300
C1923       C  0.08798169  0.55387481  0.89834987     0.20400
C1924       C  0.11351911  0.55459709  0.89071176    -0.03200
C1925       C  0.11351149  0.53690562  0.86764650    -0.06300
C1926       C  0.08797939  0.51866109  0.85229731     0.20600
C1927       C  0.13906273  0.53771634  0.85972054     0.18800
C1928       C  0.16430796  0.55606958  0.87518564    -0.17800
C1929       C  0.16432176  0.57364932  0.89806412    -0.20000
C1930       C  0.13908097  0.57317270  0.90589280     0.20300
C1931       C  0.13895467  0.59103918  0.92847692    -0.33000
C1932       C  0.11360376  0.59065433  0.93593402     0.01000
C1933       C  0.08821741  0.57190601  0.92079500    -0.24300
C1934       C  0.08826778  0.50189584  0.82879147    -0.28900
C1935       C  0.11368080  0.50290451  0.82031980     0.06700
C1936       C  0.13894854  0.52049047  0.83620697    -0.27600
H1937       H  0.04283103  0.50373456  0.84888130     0.11400
H1938       H  0.04282795  0.53434256  0.88899622     0.12500
H1939       H  0.18410766  0.55698747  0.86943915     0.11600
H1940       H  0.18412835  0.58775040  0.90952838     0.10800
H1941       H  0.15861888  0.60536782  0.94007297     0.16200
H1942       H  0.06852403  0.57125445  0.92651111     0.12100
H1943       H  0.06859400  0.48807390  0.81692625     0.15000
H1944       H  0.15856897  0.52131423  0.82978713     0.14800
C1945       C  0.06851716  0.50410552  0.61913467    -0.18100
C1946       C  0.07101069  0.52203545  0.59564212    -0.20300
C1947       C  0.09489268  0.54956407  0.59363567     0.20400
C1948       C  0.11659614  0.55922715  0.61532270    -0.03200
C1949       C  0.11413115  0.54102477  0.63902832    -0.06300
C1950       C  0.08990953  0.51339091  0.64091984     0.20600
C1951       C  0.13579374  0.55043978  0.66079622     0.18800
C1952       C  0.15970506  0.57804238  0.65865530    -0.17800
C1953       C  0.16206697  0.59618469  0.63519106    -0.20000
C1954       C  0.14061405  0.58702880  0.61337485     0.20300
C1955       C  0.14255655  0.60509283  0.58977198    -0.33000
C1956       C  0.12077951  0.59545106  0.56815538     0.01000
C1957       C  0.09719669  0.56757584  0.57032677    -0.24300
C1958       C  0.08742297  0.49542144  0.66450110    -0.28900
C1959       C  0.10888510  0.50446962  0.68627181     0.06700
C1960       C  0.13309613  0.53205799  0.68425190    -0.27600
H1961       H  0.04983105  0.48295070  0.62026301     0.11400
H1962       H  0.05418240  0.51439626  0.57907462     0.12500
H1963       H  0.17655855  0.58563356  0.67518191     0.11600
H1964       H  0.18067141  0.61739197  0.63413101     0.10800
H1965       H  0.16079641  0.62651414  0.58831604     0.16200
H1966       H  0.08018748  0.55978761  0.55394192     0.12100
H1967       H  0.06878986  0.47421921  0.66573446     0.15000
H1968       H  0.14978518  0.53926818  0.70094664     0.14800
C1969       C  0.01491765  0.38949446  0.92422062    -0.18100
C1970       C  0.03447671  0.39906011  0.90079137    -0.20300
C1971       C  0.02729367  0.38436219  0.87353630     0.20400
C1972       C  0.00067763  0.35905332  0.87016899    -0.03200
C1973       C  0.98080819  0.34952165  0.89378345    -0.06300
C1974       C  0.98786156  0.36518944  0.92065131     0.20600
C1975       C  0.95350736  0.32513482  0.89005375     0.18800
C1976       C  0.94687574  0.30981062  0.86311365    -0.17800
C1977       C  0.96667603  0.31918816  0.83968904    -0.20000
C1978       C  0.99340800  0.34411594  0.84275823     0.20300
C1979       C  0.01241377  0.35526604  0.81854326    -0.33000
C1980       C  0.03799008  0.38148897  0.82145273     0.01000
C1981       C  0.04567804  0.39540730  0.84914009    -0.24300
C1982       C  0.96737346  0.35709215  0.94306697    -0.28900
C1983       C  0.93961548  0.33377981  0.93904688     0.06700
C1984       C  0.93303147  0.31729816  0.91283258    -0.27600
H1985       H  0.02063853  0.40161369  0.94483485     0.11400
H1986       H  0.05491775  0.41840405  0.90370631     0.12500
H1987       H  0.92611206  0.29096013  0.85988493     0.11600
H1988       H  0.96076012  0.30739547  0.81886817     0.10800
H1989       H  0.00649735  0.34466991  0.79701956     0.16200
H1990       H  0.06554991  0.41555018  0.85128553     0.12100
H1991       H  0.97282894  0.36971847  0.96333761     0.15000
H1992       H  0.91172344  0.29923768  0.90961410     0.14800
C1993       C  0.93635714  0.36084364  0.64929578    -0.18100
C1994       C  0.95581672  0.36922953  0.67284289    -0.20300
C1995       C  0.98014159  0.36665490  0.67041626     0.20400
C1996       C  0.98427786  0.35424061  0.64472196    -0.03200
C1997       C  0.96435020  0.34533205  0.62109097    -0.06300
C1998       C  0.94078046  0.34947219  0.62311250     0.20600
C1999       C  0.96868660  0.33350108  0.59495489     0.18800
C2000       C  0.99245383  0.32988904  0.59315880    -0.17800
C2001       C  0.01243662  0.33909847  0.61646040    -0.20000
C2002       C  0.00888105  0.35184036  0.64211996     0.20300
C2003       C  0.02990951  0.36320829  0.66466846    -0.33000
C2004       C  0.02641855  0.37680080  0.68972933     0.01000
C2005       C  0.00094108  0.37743061  0.69275983    -0.24300
C2006       C  0.92276479  0.34337866  0.59845226    -0.28900
C2007       C  0.92766462  0.33278399  0.57190409     0.06700
C2008       C  0.94994346  0.32679146  0.57062667    -0.27600
H2009       H  0.91822184  0.36389815  0.65127572     0.11400
H2010       H  0.95230788  0.37857690  0.69258592     0.12500
H2011       H  0.99605567  0.32071953  0.57333628     0.11600
H2012       H  0.03101160  0.33682170  0.61411251     0.10800
H2013       H  0.04928947  0.36235693  0.66221896     0.16200
H2014       H  0.99766393  0.38742451  0.71210475     0.12100
H2015       H  0.90534487  0.34764931  0.59956962     0.15000
H2016       H  0.95373018  0.31862594  0.55012089     0.14800
C2017       C  0.40255811  0.38583036  0.91675151    -0.18100
C2018       C  0.41393272  0.37776441  0.89342737    -0.20300
C2019       C  0.39734655  0.36396662  0.86822805     0.20400
C2020       C  0.36885288  0.35784338  0.86660259    -0.03200
C2021       C  0.35742939  0.36634426  0.89011055    -0.06300
C2022       C  0.37450023  0.38043681  0.91512988     0.20600
C2023       C  0.32926243  0.36126061  0.88838010     0.18800
C2024       C  0.31261721  0.34700764  0.86320898    -0.17800
C2025       C  0.32386392  0.33827865  0.83996683    -0.20000
C2026       C  0.35205937  0.34378475  0.84130644     0.20300
C2027       C  0.36407212  0.33617207  0.81764430    -0.33000
C2028       C  0.39283059  0.34319370  0.81889432     0.01000
C2029       C  0.40909337  0.35678778  0.84440160    -0.24300
C2030       C  0.36361038  0.38953571  0.93798422    -0.28900
C2031       C  0.33592068  0.38549697  0.93643287     0.06700
C2032       C  0.31862130  0.37100915  0.91157594    -0.27600
H2033       H  0.41587751  0.39667913  0.93591478     0.11400
H2034       H  0.43580829  0.38254381  0.89498698     0.12500
H2035       H  0.29095192  0.34279260  0.86137538     0.11600
H2036       H  0.31060756  0.32753978  0.82074710     0.10800
H2037       H  0.35151149  0.32590839  0.79786824     0.16200
H2038       H  0.43118011  0.36210191  0.84554737     0.12100
H2039       H  0.37732255  0.40057518  0.95685355     0.15000
H2040       H  0.29728456  0.36775800  0.91006604     0.14800
C2041       C  0.34230041  0.32746114  0.58794370    -0.18100
C2042       C  0.35230646  0.31755178  0.61120408    -0.20300
C2043       C  0.36127290  0.33248121  0.63837023     0.20400
C2044       C  0.35955148  0.35735537  0.64224327    -0.03200
C2045       C  0.34976443  0.36750455  0.61872566    -0.06300
C2046       C  0.34121264  0.35258075  0.59133928     0.20600
C2047       C  0.34942441  0.39312005  0.62234261     0.18800
C2048       C  0.35781871  0.40780458  0.64959863    -0.17800
C2049       C  0.36710972  0.39756214  0.67296715    -0.20000
C2050       C  0.36846748  0.37266582  0.66930857     0.20300
C2051       C  0.37968479  0.36354617  0.69190384    -0.33000
C2052       C  0.38293038  0.33967962  0.68782991     0.01000
C2053       C  0.37290682  0.32368704  0.66129711    -0.24300
C2054       C  0.33266430  0.36361009  0.56762925    -0.28900
C2055       C  0.33345860  0.38973323  0.57091904     0.06700
C2056       C  0.34154354  0.40413141  0.59837833    -0.27600
H2057       H  0.33589500  0.31574320  0.56708824     0.11400
H2058       H  0.35342952  0.29842479  0.60777026     0.12500
H2059       H  0.35757754  0.42744067  0.65270199     0.11600
H2060       H  0.37388722  0.40950288  0.69368509     0.10800
H2061       H  0.38695572  0.37583652  0.71239646     0.16200
H2062       H  0.37529442  0.30526300  0.65798009     0.12100
H2063       H  0.32687166  0.35274609  0.54625038     0.15000
H2064       H  0.34223941  0.42432014  0.60084207     0.14800
C2065       C  0.25791424  0.46410812  0.85586521    -0.18100
C2066       C  0.24033015  0.46214347  0.83212169    -0.20300
C2067       C  0.21075287  0.44345954  0.83365346     0.20400
C2068       C  0.19876644  0.42615731  0.85907911    -0.03200
C2069       C  0.21656934  0.42801859  0.88301393    -0.06300
C2070       C  0.24623162  0.44730826  0.88145659     0.20600
C2071       C  0.20468367  0.41084254  0.90857920     0.18800
C2072       C  0.17508936  0.39201910  0.90995936    -0.17800
C2073       C  0.15740822  0.39032577  0.88630085    -0.20000
C2074       C  0.16899859  0.40734500  0.86077475     0.20300
C2075       C  0.15136699  0.40637664  0.83721630    -0.33000
C2076       C  0.16317865  0.42421852  0.81217580     0.01000
C2077       C  0.19295071  0.44230435  0.81044155    -0.24300
C2078       C  0.26371326  0.44960591  0.90555108    -0.28900
C2079       C  0.25211860  0.43251035  0.93104453     0.06700
C2080       C  0.22259264  0.41297966  0.93233923    -0.27600
H2081       H  0.28066058  0.47890885  0.85427890     0.11400
H2082       H  0.24983590  0.47550742  0.81268909     0.12500
H2083       H  0.16558340  0.37872506  0.92943368     0.11600
H2084       H  0.13462123  0.37580371  0.88805229     0.10800
H2085       H  0.12845299  0.39246065  0.83880810     0.16200
H2086       H  0.20231922  0.45598853  0.79117543     0.12100
H2087       H  0.28647370  0.46455071  0.90434852     0.15000
H2088       H  0.21352202  0.39988651  0.95204682     0.14800
C2089       C  0.21591538  0.48196330  0.62703313    -0.18100
C2090       C  0.23315722  0.48190575  0.60400461    -0.20300
C2091       C  0.23195014  0.45648734  0.59555291     0.20400
C2092       C  0.21314527  0.43080888  0.61031516    -0.03200
C2093       C  0.19561824  0.43085159  0.63354121    -0.06300
C2094       C  0.19714254  0.45659477  0.64191702     0.20600
C2095       C  0.17677395  0.40526305  0.64848264     0.18800
C2096       C  0.17550536  0.37981307  0.63981796    -0.17800
C2097       C  0.19298232  0.37978871  0.61681987    -0.20000
C2098       C  0.21200913  0.40519808  0.60201584     0.20300
C2099       C  0.22999514  0.40556389  0.57918090    -0.33000
C2100       C  0.24873746  0.43118306  0.56435588     0.01000
C2101       C  0.24940164  0.45644858  0.57267661    -0.24300
C2102       C  0.18004851  0.45667156  0.66516997    -0.28900
C2103       C  0.16136960  0.43140473  0.68048178     0.06700
C2104       C  0.15975128  0.40568345  0.67191655    -0.27600
H2105       H  0.21731444  0.50189550  0.63325268     0.11400
H2106       H  0.24753300  0.50178365  0.59286903     0.12500
H2107       H  0.16111372  0.35994364  0.65095012     0.11600
H2108       H  0.19169329  0.35989083  0.61069280     0.10800
H2109       H  0.22926258  0.38597015  0.57281543     0.16200
H2110       H  0.26389202  0.47633527  0.56158366     0.12100
H2111       H  0.18157972  0.47663977  0.67153879     0.15000
H2112       H  0.14540265  0.38608140  0.68352591     0.14800
C2113       C  0.66706356  0.64118900  0.87021504    -0.18100
C2114       C  0.65623708  0.65019882  0.84691864    -0.20300
C2115       C  0.62777896  0.64385088  0.84733339     0.20400
C2116       C  0.61037414  0.62910463  0.87201210    -0.03200
C2117       C  0.62135681  0.62026544  0.89558319    -0.06300
C2118       C  0.64968896  0.62581086  0.89445924     0.20600
C2119       C  0.60362907  0.60503966  0.91979483     0.18800
C2120       C  0.57540816  0.59927300  0.92071593    -0.17800
C2121       C  0.56446452  0.60774130  0.89728179    -0.20000
C2122       C  0.58164964  0.62227464  0.87269531     0.20300
C2123       C  0.57023277  0.62911617  0.84830888    -0.33000
C2124       C  0.58701450  0.64274658  0.82309311     0.01000
C2125       C  0.61605138  0.65093268  0.82307746    -0.24300
C2126       C  0.65975491  0.61511268  0.91710151    -0.28900
C2127       C  0.64176724  0.59912204  0.94082364     0.06700
C2128       C  0.61401598  0.59493937  0.94225457    -0.27600
H2129       H  0.68890096  0.64582533  0.86900239     0.11400
H2130       H  0.66995438  0.66157337  0.82823071     0.12500
H2131       H  0.56158959  0.58762854  0.93925271     0.11600
H2132       H  0.54239848  0.60245335  0.89812582     0.10800
H2133       H  0.54791353  0.62306911  0.84858736     0.16200
H2134       H  0.62903711  0.66139411  0.80363688     0.12100
H2135       H  0.68118334  0.61857437  0.91585130     0.15000
H2136       H  0.59989614  0.58281783  0.96042761     0.14800
C2137       C  0.64002068  0.65298786  0.59283806    -0.18100
C2138       C  0.62943522  0.66244372  0.61590121    -0.20300
C2139       C  0.61729199  0.64564709  0.64145247     0.20400
C2140       C  0.61620460  0.61922795  0.64393649    -0.03200
C2141       C  0.62668018  0.60960444  0.62062155    -0.06300
C2142       C  0.63851713  0.62649937  0.59484878     0.20600
C2143       C  0.62454408  0.58269648  0.62276256     0.18800
C2144       C  0.61286762  0.56606769  0.64845224    -0.17800
C2145       C  0.60275981  0.57571983  0.67164394    -0.20000
C2146       C  0.60402029  0.60206119  0.66940387     0.20300
C2147       C  0.59268483  0.61116676  0.69193796    -0.33000
C2148       C  0.59298520  0.63712085  0.68942818     0.01000
C2149       C  0.60567761  0.65446532  0.66425614    -0.24300
C2150       C  0.64767519  0.61611909  0.57117149    -0.28900
C2151       C  0.64431039  0.58877465  0.57275987     0.06700
C2152       C  0.63322361  0.57243502  0.59877666    -0.27600
H2153       H  0.64896952  0.66619896  0.57320121     0.11400
H2154       H  0.63047389  0.68277679  0.61360384     0.12500
H2155       H  0.61118023  0.54541153  0.65042391     0.11600
H2156       H  0.59350297  0.56235057  0.69112884     0.10800
H2157       H  0.58304835  0.59761954  0.71124387     0.16200
H2158       H  0.60595210  0.67444936  0.66209595     0.12100
H2159       H  0.65592085  0.62857632  0.55093067     0.15000
H2160       H  0.63069311  0.55135455  0.59999975     0.14800
C2161       C  0.37690885  0.55161026  0.63272311    -0.18100
C2162       C  0.39467727  0.56770458  0.65638378    -0.20300
C2163       C  0.42250582  0.57242953  0.65871540     0.20400
C2164       C  0.43252884  0.56083575  0.63699495    -0.03200
C2165       C  0.41469911  0.54478540  0.61307878    -0.06300
C2166       C  0.38668336  0.54003128  0.61093109     0.20600
C2167       C  0.42492184  0.53341019  0.59139131     0.18800
C2168       C  0.45266833  0.53799720  0.59368060    -0.17800
C2169       C  0.47025060  0.55374670  0.61742476    -0.20000
C2170       C  0.46038660  0.56524284  0.63914348     0.20300
C2171       C  0.47798752  0.58114052  0.66290018    -0.33000
C2172       C  0.46832271  0.59299835  0.68452985     0.01000
C2173       C  0.44051660  0.58854964  0.68231454    -0.24300
C2174       C  0.36896039  0.52362696  0.58718267    -0.28900
C2175       C  0.37909480  0.51213885  0.56558827     0.06700
C2176       C  0.40719393  0.51739159  0.56785747    -0.27600
H2177       H  0.35550365  0.54820778  0.63148317     0.11400
H2178       H  0.38663119  0.57642860  0.67289504     0.12500
H2179       H  0.46074031  0.52931129  0.57714806     0.11600
H2180       H  0.49158648  0.55696899  0.61877932     0.10800
H2181       H  0.49938503  0.58450559  0.66435599     0.16200
H2182       H  0.43284956  0.59751764  0.69898105     0.12100
H2183       H  0.34735894  0.51967216  0.58562688     0.15000
H2184       H  0.41531252  0.50862252  0.55145577     0.14800
C2185       C  0.42219598  0.59967526  0.88068415    -0.18100
C2186       C  0.40484585  0.58160582  0.90356190    -0.20300
C2187       C  0.40210043  0.55472277  0.90786451     0.20400
C2188       C  0.41737296  0.54622007  0.88924582    -0.03200
C2189       C  0.43480598  0.56438547  0.86624088    -0.06300
C2190       C  0.43710539  0.59119002  0.86168784     0.20600
C2191       C  0.44965482  0.55548306  0.84755403     0.18800
C2192       C  0.44754159  0.52899296  0.85218221    -0.17800
C2193       C  0.43033859  0.51106437  0.87491454    -0.20000
C2194       C  0.41501453  0.51937106  0.89334600     0.20300
C2195       C  0.39724001  0.50109616  0.91564834    -0.33000
C2196       C  0.38163217  0.50909175  0.93414217     0.01000
C2197       C  0.38427744  0.53607851  0.93025735    -0.24300
C2198       C  0.45390891  0.60868650  0.83797501    -0.28900
C2199       C  0.46805455  0.59935734  0.81879382     0.06700
C2200       C  0.46609682  0.57295113  0.82418776    -0.27600
H2201       H  0.42373509  0.62017494  0.87767743     0.11400
H2202       H  0.39339366  0.58856621  0.91774134     0.12500
H2203       H  0.45897993  0.52200695  0.83800611     0.11600
H2204       H  0.42882502  0.49056972  0.87791379     0.10800
H2205       H  0.39553949  0.48049452  0.91852040     0.16200
H2206       H  0.37249083  0.54255073  0.94457038     0.12100
H2207       H  0.45550203  0.62911515  0.83411328     0.15000
H2208       H  0.47730799  0.56572400  0.80995165     0.14800
C2209       C  0.50371415  0.73138295  0.58632894    -0.18100
C2210       C  0.50303782  0.71401522  0.60972525    -0.20300
C2211       C  0.52370295  0.72520244  0.63241620     0.20400
C2212       C  0.54534760  0.75415403  0.63148546    -0.03200
C2213       C  0.54598119  0.77172666  0.60788410    -0.06300
C2214       C  0.52505405  0.76026889  0.58521755     0.20600
C2215       C  0.56745533  0.80075450  0.60706705     0.18800
C2216       C  0.58805046  0.81194466  0.62984245    -0.17800
C2217       C  0.58747985  0.79452332  0.65316382    -0.20000
C2218       C  0.56625165  0.76558979  0.65419891     0.20300
C2219       C  0.56538088  0.74798668  0.67767358    -0.33000
C2220       C  0.54358864  0.71918256  0.67898323     0.01000
C2221       C  0.52292245  0.70799069  0.65613626    -0.24300
C2222       C  0.52572333  0.77788883  0.56192554    -0.28900
C2223       C  0.54708227  0.80690347  0.56087145     0.06700
C2224       C  0.56789182  0.81810835  0.58359918    -0.27600
H2225       H  0.48747875  0.72222916  0.56913375     0.11400
H2226       H  0.48627199  0.69181074  0.61011055     0.12500
H2227       H  0.60464306  0.83421714  0.62962339     0.11600
H2228       H  0.60362188  0.80371326  0.67044736     0.10800
H2229       H  0.58125982  0.75686230  0.69525424     0.16200
H2230       H  0.50609734  0.68580132  0.65684016     0.12100
H2231       H  0.50950748  0.76899306  0.54467763     0.15000
H2232       H  0.58431749  0.84045264  0.58322700     0.14800
C2233       C  0.51198637  0.78434176  0.85580316    -0.18100
C2234       C  0.51191896  0.76700572  0.83278285    -0.20300
C2235       C  0.53177760  0.75779616  0.83268763     0.20400
C2236       C  0.55239324  0.76666456  0.85557261    -0.03200
C2237       C  0.55248958  0.78423917  0.87883662    -0.06300
C2238       C  0.53191552  0.79273912  0.87907382     0.20600
C2239       C  0.57266489  0.79271981  0.90217029     0.18800
C2240       C  0.59294445  0.78398363  0.90161964    -0.17800
C2241       C  0.59281979  0.76649395  0.87853445    -0.20000
C2242       C  0.57244184  0.75745980  0.85556565     0.20300
C2243       C  0.57131113  0.73893896  0.83294957    -0.33000
C2244       C  0.55024189  0.72943025  0.81051570     0.01000
C2245       C  0.53089721  0.73937470  0.81038854    -0.24300
C2246       C  0.53106760  0.80886064  0.90294822    -0.28900
C2247       C  0.55042365  0.81666589  0.92681972     0.06700
C2248       C  0.57165405  0.80910553  0.92596840    -0.27600
H2249       H  0.49614219  0.79082359  0.85564832     0.11400
H2250       H  0.49604559  0.76044574  0.81527555     0.12500
H2251       H  0.60863985  0.79032764  0.91928102     0.11600
H2252       H  0.60844123  0.75972708  0.87886252     0.10800
H2253       H  0.58636424  0.73143729  0.83322007     0.16200
H2254       H  0.51472986  0.73240868  0.79313057     0.12100
H2255       H  0.51487926  0.81490313  0.90319126     0.15000
H2256       H  0.58669384  0.81508871  0.94425569     0.14800
loop_ 
_geom_bond_atom_site_label_1 
_geom_bond_atom_site_label_2 
_geom_bond_distance 
_geom_bond_site_symmetry_2 
_ccdc_geom_bond_type 
O1          Cr19   1.971       .  S
O1            C9   1.263       .  A
O2          Cr19   1.991       .  S
O2            C3   1.260       .  A
C3            O4   1.260       .  A
C3         C1020   1.481       .  S
O4          Cr20   1.993       .  S
O5          Cr20   2.023       .  S
O5            C6   1.271       .  A
C6            O7   1.261       .  A
C6         C1092   1.484       .  S
O7          Cr21   1.971       .  S
O8          Cr21   2.015       .  S
O8            C9   1.269       .  A
C9         C1044   1.477       .  S
O10         Cr19   1.987       .  S
O10          C18   1.261       .  A
O11         Cr19   1.958       .  S
O11          C12   1.260       .  A
C12          O13   1.273       .  A
C12         C996   1.475       .  S
O13         Cr20   2.033       .  S
O14         Cr20   1.983       .  S
O14          C15   1.261       .  A
C15          O16   1.265       .  A
C15        C1116   1.485       .  S
O16         Cr21   2.001       .  S
O17         Cr21   1.998       .  S
O17          C18   1.262       .  A
C18        C1071   1.481       .  S
Cr19         O22   1.760       .  S
Cr20         O22   1.770       .  S
Cr21         O22   1.765       .  S
O23         Cr41   1.980       .  S
O23          C31   1.258       .  A
O24         Cr41   1.968       .  S
O24          C25   1.261       .  A
C25          O26   1.272       .  A
C25         C927   1.474       .  S
O26       Cr1170   2.034   1_554  S
O27       Cr1170   1.993   1_554  S
O27          C28   1.264       .  A
C28          O29   1.266       .  A
C28         C972   1.484       .  S
O29         Cr43   1.995   1_554  S
O30         Cr43   1.999   1_554  S
O30          C31   1.262       .  A
C31        C1047   1.479       .  S
O32       Cr1169   1.969       .  S
O32          C40   1.263       .  A
O33       Cr1169   1.985       .  S
O33          C34   1.260       .  A
C34          O35   1.262       .  A
C34         C903   1.488       .  S
O35         Cr42   2.008       .  S
O36         Cr42   2.016       .  S
O36          C37   1.269       .  A
C37          O38   1.261       .  A
C37         C951   1.479       .  S
O38       Cr1171   1.974       .  S
O39       Cr1171   2.017       .  S
O39          C40   1.269       .  A
C40        C1068   1.479       .  S
Cr41       O1160   1.972   1_554  S
Cr41       O1161   1.982   1_554  S
Cr41         O44   1.757   1_554  S
Cr42       O1154   2.037       .  S
Cr42       O1155   1.988       .  S
Cr42       O1172   1.776       .  S
Cr43       O1166   1.974       .  S
Cr43       O1167   2.017       .  S
Cr43         O44   1.767       .  S
O44       Cr1170   1.776       .  S
O45         Cr63   1.980       .  S
O45          C53   1.265       .  A
O46         Cr63   1.988       .  S
O46          C47   1.260       .  A
C47          O48   1.263       .  A
C47         C876   1.487       .  S
O48         Cr64   2.003       .  S
O49         Cr64   2.019       .  S
O49          C50   1.270       .  A
C50          O51   1.262       .  A
C50         C975   1.485       .  S
O51         Cr65   1.968       .  S
O52         Cr65   2.013       .  S
O52          C53   1.268       .  A
C53         C831   1.481       .  S
O54         Cr63   1.987       .  S
O54          C62   1.260       .  A
O55         Cr63   1.966       .  S
O55          C56   1.261       .  A
C56          O57   1.270       .  A
C56         C852   1.470       .  S
O57         Cr64   2.025       .  S
O58         Cr64   1.994       .  S
O58          C59   1.263       .  A
C59          O60   1.263       .  A
C59         C948   1.484       .  S
O60         Cr65   1.996       .  S
O61         Cr65   1.999       .  S
O61          C62   1.262       .  A
C62         C807   1.480       .  S
Cr63         O66   1.760       .  S
Cr64         O66   1.774       .  S
Cr65         O66   1.769       .  S
O67         Cr85   1.989       .  S
O67          C75   1.259       .  A
O68         Cr85   1.954       .  S
O68          C69   1.258       .  A
C69          O70   1.271       .  A
C69         C735   1.471       .  S
O70       Cr1214   2.027       .  S
O71       Cr1214   1.980       .  S
O71          C72   1.262       .  A
C72          O73   1.268       .  A
C72        C1095   1.487       .  S
O73         Cr87   2.010   1_554  S
O74         Cr87   1.992   1_554  S
O74          C75   1.259       .  A
C75         C783   1.472       .  S
O76       Cr1213   1.974       .  S
O76          C84   1.263       .  A
O77       Cr1213   1.992       .  S
O77          C78   1.261       .  A
C78          O79   1.262       .  A
C78         C711   1.485       .  S
O79         Cr86   2.000       .  S
O80         Cr86   2.015       .  S
O80          C81   1.267       .  A
C81          O82   1.261       .  A
C81        C1119   1.485       .  S
O82       Cr1215   1.976       .  S
O83       Cr1215   2.016       .  S
O83          C84   1.271       .  A
C84         C756   1.481       .  S
Cr85       O1204   1.968   1_554  S
Cr85       O1205   1.990   1_554  S
Cr85         O88   1.762   1_554  S
Cr86       O1198   2.027       .  S
Cr86       O1199   1.982       .  S
Cr86       O1216   1.774       .  S
Cr87       O1210   1.968       .  S
Cr87       O1211   2.017       .  S
Cr87         O88   1.766       .  S
O88       Cr1214   1.773   1_556  S
O89        Cr107   1.989   1_554  S
O89          C97   1.260       .  A
O90        Cr107   1.965   1_554  S
O90          C91   1.261       .  A
C91          O92   1.272       .  A
C91         C879   1.476       .  S
O92       Cr1236   2.032   1_554  S
O93       Cr1236   1.977   1_554  S
O93          C94   1.260       .  A
C94          O95   1.266       .  A
C94         C639   1.483       .  S
O95        Cr109   2.004   1_554  S
O96        Cr109   1.994   1_554  S
O96          C97   1.261       .  A
C97         C684   1.479       .  S
O98       Cr1235   1.978       .  S
O98         C106   1.265       .  A
O99       Cr1235   1.994       .  S
O99         C100   1.262       .  A
C100        O101   1.261       .  A
C100        C855   1.482       .  S
O101       Cr108   1.993       .  S
O102       Cr108   2.015       .  S
O102        C103   1.268       .  A
C103        O104   1.260       .  A
C103        C612   1.480       .  S
O104      Cr1237   1.965       .  S
O105      Cr1237   2.022       .  S
O105        C106   1.271       .  A
C106        C660   1.487       .  S
Cr107      O1226   1.976       .  S
Cr107      O1227   1.993       .  S
Cr107       O110   1.761       .  S
Cr108      O1220   2.026       .  S
Cr108      O1221   1.977       .  S
Cr108      O1238   1.774       .  S
Cr109      O1232   1.965       .  S
Cr109      O1233   2.017       .  S
Cr109       O110   1.768       .  S
O110      Cr1236   1.773       .  S
O111       Cr129   1.978       .  S
O111        C119   1.264       .  A
O112       Cr129   1.982       .  S
O112        C113   1.259       .  A
C113        O114   1.261       .  A
C113        C732   1.479       .  S
O114       Cr130   1.994       .  S
O115       Cr130   2.025       .  S
O115        C116   1.271       .  A
C116        O117   1.260       .  A
C116        C636   1.486       .  S
O117       Cr131   1.966       .  S
O118       Cr131   2.012       .  S
O118        C119   1.269       .  A
C119        C588   1.480       .  S
O120       Cr129   1.986       .  S
O120        C128   1.260       .  A
O121       Cr129   1.967       .  S
O121        C122   1.262       .  A
C122        O123   1.272       .  A
C122        C708   1.475       .  S
O123       Cr130   2.030       .  S
O124       Cr130   1.979       .  S
O124        C125   1.260       .  A
C125        O126   1.264       .  A
C125        C615   1.479       .  S
O126       Cr131   1.994       .  S
O127       Cr131   2.000       .  S
O127        C128   1.261       .  A
C128        C564   1.482       .  S
Cr129       O132   1.757       .  S
Cr130       O132   1.774       .  S
Cr131       O132   1.767       .  S
O133       Cr151   1.974       .  S
O133        C141   1.263       .  A
O134       Cr151   1.989       .  S
O134        C135   1.260       .  A
C135        O136   1.261       .  A
C135        C492   1.480       .  S
O136       Cr152   1.994       .  S
O137       Cr152   2.031       .  S
O137        C138   1.272       .  A
C138        O139   1.260       .  A
C138        C519   1.489       .  S
O139       Cr153   1.962       .  S
O140       Cr153   2.019       .  S
O140        C141   1.270       .  A
C141        C687   1.483       .  S
O142       Cr151   1.993       .  S
O142        C150   1.261       .  A
O143       Cr151   1.956       .  S
O143        C144   1.260       .  A
C144        O145   1.272       .  A
C144        C468   1.469       .  S
O145       Cr152   2.030       .  S
O146       Cr152   1.993       .  S
O146        C147   1.262       .  A
C147        O148   1.266       .  A
C147        C540   1.491       .  S
O148       Cr153   2.002       .  S
O149       Cr153   1.996       .  S
O149        C150   1.261       .  A
C150        C663   1.482       .  S
Cr151       O154   1.763       .  S
Cr152       O154   1.776       .  S
Cr153       O154   1.767       .  S
O155       Cr173   1.995   1_554  S
O155        C163   1.262       .  A
O156       Cr173   1.957   1_554  S
O156        C157   1.259       .  A
C157        O158   1.273       .  A
C157        C396   1.476       .  S
O158      Cr1302   2.040   1_554  S
O159      Cr1302   1.989   1_554  S
O159        C160   1.262       .  A
C160        O161   1.266       .  A
C160        C420   1.488       .  S
O161       Cr175   2.002   1_554  S
O162       Cr175   1.988   1_554  S
O162        C163   1.260       .  A
C163        C591   1.480       .  S
O164      Cr1301   1.978       .  S
O164        C172   1.265       .  A
O165      Cr1301   1.999       .  S
O165        C166   1.261       .  A
C166        O167   1.261       .  A
C166        C375   1.480       .  S
O167       Cr174   2.001       .  S
O168       Cr174   2.020       .  S
O168        C169   1.270       .  A
C169        O170   1.262       .  A
C169        C444   1.487       .  S
O170      Cr1303   1.974       .  S
O171      Cr1303   2.012       .  S
O171        C172   1.268       .  A
C172        C567   1.481       .  S
Cr173      O1292   1.974       .  S
Cr173      O1293   1.999       .  S
Cr173       O176   1.762       .  S
Cr174      O1286   2.034       .  S
Cr174      O1287   1.990       .  S
Cr174      O1304   1.773       .  S
Cr175      O1298   1.968       .  S
Cr175      O1299   2.018       .  S
Cr175       O176   1.765       .  S
O176      Cr1302   1.773       .  S
O177       Cr195   1.988       .  S
O177        C185   1.259       .  A
O178       Cr195   1.960       .  S
O178        C179   1.261       .  A
C179        O180   1.272       .  A
C179       C1023   1.470       .  S
O180      Cr1324   2.031   1_554  S
O181      Cr1324   1.989   1_554  S
O181        C182   1.263       .  A
C182        O183   1.266       .  A
C182        C516   1.487       .  S
O183       Cr197   1.998   1_554  S
O184       Cr197   2.010   1_554  S
O184        C185   1.263       .  A
C185        C348   1.488       .  S
O186      Cr1323   1.969       .  S
O186        C194   1.264       .  A
O187      Cr1323   1.986       .  S
O187        C188   1.258       .  A
C188        O189   1.262       .  A
C188        C999   1.483       .  S
O189       Cr196   2.002       .  S
O190       Cr196   2.027       .  S
O190        C191   1.270       .  A
C191        O192   1.262       .  A
C191        C543   1.491       .  S
O192      Cr1325   1.975       .  S
O193      Cr1325   2.018       .  S
O193        C194   1.271       .  A
C194        C327   1.479       .  S
Cr195      O1314   1.969   1_554  S
Cr195      O1315   1.986   1_554  S
Cr195       O198   1.760   1_554  S
Cr196      O1308   2.031       .  S
Cr196      O1309   1.989       .  S
Cr196      O1326   1.777       .  S
Cr197      O1320   1.979       .  S
Cr197      O1321   2.014       .  S
Cr197       O198   1.766       .  S
O198      Cr1324   1.776       .  S
O199       Cr217   1.982       .  S
O199        C207   1.264       .  A
O200       Cr217   1.991       .  S
O200        C201   1.261       .  A
C201        O202   1.262       .  A
C201        C924   1.484       .  S
O202       Cr218   2.001       .  S
O203       Cr218   2.027       .  S
O203        C204   1.271       .  A
C204        O205   1.261       .  A
C204        C423   1.487       .  S
O205       Cr219   1.964       .  S
O206       Cr219   2.019       .  S
O206        C207   1.268       .  A
C207        C351   1.485       .  S
O208       Cr217   1.994       .  S
O208        C216   1.262       .  A
O209       Cr217   1.964       .  S
O209        C210   1.261       .  A
C210        O211   1.272       .  A
C210        C900   1.480       .  S
O211       Cr218   2.036       .  S
O212       Cr218   1.994       .  S
O212        C213   1.263       .  A
C213        O214   1.265       .  A
C213        C447   1.490       .  S
O214       Cr219   2.001       .  S
O215       Cr219   1.986       .  S
O215        C216   1.260       .  A
C216        C324   1.476       .  S
Cr217       O220   1.762       .  S
Cr218       O220   1.778       .  S
Cr219       O220   1.770       .  S
O221       Cr239   1.984       .  S
O221        C229   1.258       .  A
O222       Cr239   1.963       .  S
O222        C223   1.261       .  A
C223        O224   1.271       .  A
C223        C495   1.468       .  S
O224      Cr1368   2.025   1_554  S
O225      Cr1368   1.977   1_554  S
O225        C226   1.260       .  A
C226        O227   1.266       .  A
C226        C303   1.482       .  S
O227       Cr241   2.000       .  S
O228       Cr241   2.004       .  S
O228        C229   1.261       .  A
C229        C828   1.484       .  S
O230      Cr1367   1.971       .  S
O230        C238   1.264       .  A
O231      Cr1367   1.992       .  S
O231        C232   1.261       .  A
C232        O233   1.259       .  A
C232        C471   1.480       .  S
O233       Cr240   1.990       .  S
O234       Cr240   2.016       .  S
O234        C235   1.269       .  A
C235        O236   1.261       .  A
C235        C276   1.486       .  S
O236      Cr1369   1.970       .  S
O237      Cr1369   2.019       .  S
O237        C238   1.271       .  A
C238        C804   1.482       .  S
Cr239      O1358   1.968   1_554  S
Cr239      O1359   1.989   1_554  S
Cr239       O242   1.759       .  S
Cr240      O1352   2.026       .  S
Cr240      O1353   1.978       .  S
Cr240      O1370   1.775       .  S
Cr241      O1364   1.971   1_554  S
Cr241      O1365   2.020   1_554  S
Cr241       O242   1.766       .  S
O242      Cr1368   1.775   1_554  S
O243       Cr261   2.009       .  S
O243        C251   1.264       .  A
O244       Cr261   1.959       .  S
O244        C245   1.258       .  A
C245        O246   1.271       .  A
C245        C399   1.471       .  S
O246       Cr262   2.032       .  S
O247       Cr262   1.976       .  S
O247        C248   1.261       .  A
C248        O249   1.267       .  A
C248        C300   1.472       .  S
O249       Cr263   2.003       .  S
O250       Cr263   1.976       .  S
O250        C251   1.257       .  A
C251        C780   1.483       .  S
O252       Cr261   1.963       .  S
O252        C260   1.260       .  A
O253       Cr261   2.012       .  S
O253        C254   1.263       .  A
C254        O255   1.260       .  A
C254        C372   1.479       .  S
O255       Cr262   1.991       .  S
O256       Cr262   2.012       .  S
O256        C257   1.267       .  A
C257        O258   1.259       .  A
C257        C279   1.484       .  S
O258       Cr263   1.973       .  S
O259       Cr263   2.019       .  S
O259        C260   1.270       .  A
C260        C759   1.478       .  S
Cr261       O264   1.774       .  S
Cr262       O264   1.779       .  S
Cr263       O264   1.775       .  S
C265        C266   1.399       .  A
C265        C270   1.404       .  A
C265        H281   1.083       .  S
C266        C267   1.404       .  A
C266        H282   1.084       .  S
C267        C277   1.401       .  A
C267        C268   1.410       .  A
C268        C274   1.412       .  A
C268        C269   1.414       .  A
C269        C271   1.411       .  A
C269        C270   1.412       .  A
C270        C278   1.404       .  A
C271        C280   1.405       .  A
C271        C272   1.404       .  A
C272        C273   1.401       .  A
C272        H283   1.083       .  S
C273        C274   1.404       .  A
C273        H284   1.083       .  S
C274        C275   1.407       .  A
C275        C276   1.408       .  A
C275        H285   1.084       .  S
C276        C277   1.409       .  A
C277        H286   1.084       .  S
C278        C279   1.408       .  A
C278        H287   1.084       .  S
C279        C280   1.407       .  A
C280        H288   1.084       .  S
C289        C290   1.396       .  A
C289        C294   1.402       .  A
C289        H305   1.084       .  S
C290        C291   1.402       .  A
C290        H306   1.084       .  S
C291        C301   1.399       .  A
C291        C292   1.412       .  A
C292        C298   1.413       .  A
C292        C293   1.412       .  A
C293        C295   1.411       .  A
C293        C294   1.411       .  A
C294        C302   1.398       .  A
C295        C304   1.407       .  A
C295        C296   1.405       .  A
C296        C297   1.402       .  A
C296        H307   1.083       .  S
C297        C298   1.405       .  A
C297        H308   1.084       .  S
C298        C299   1.407       .  A
C299        C300   1.407       .  A
C299        H309   1.084       .  S
C300        C301   1.402       .  A
C301        H310   1.085       .  S
C302        C303   1.406       .  A
C302        H311   1.084       .  S
C303        C304   1.410       .  A
C304        H312   1.084       .  S
C313        C314   1.401       .  A
C313        C318   1.405       .  A
C313        H329   1.083       .  S
C314        C315   1.404       .  A
C314        H330   1.084       .  S
C315        C325   1.407       .  A
C315        C316   1.413       .  A
C316        C322   1.410       .  A
C316        C317   1.410       .  A
C317        C319   1.412       .  A
C317        C318   1.411       .  A
C318        C326   1.404       .  A
C319        C328   1.398       .  A
C319        C320   1.402       .  A
C320        C321   1.395       .  A
C320        H331   1.084       .  S
C321        C322   1.402       .  A
C321        H332   1.084       .  S
C322        C323   1.396       .  A
C323        C324   1.406       .  A
C323        H333   1.084       .  S
C324        C325   1.406       .  A
C325        H334   1.084       .  S
C326        C327   1.409       .  A
C326        H335   1.084       .  S
C327        C328   1.405       .  A
C328        H336   1.084       .  S
C337        C338   1.404       .  A
C337        C342   1.406       .  A
C337        H353   1.083       .  S
C338        C339   1.405       .  A
C338        H354   1.084       .  S
C339        C349   1.413       .  A
C339        C340   1.414       .  A
C340        C346   1.408       .  A
C340        C341   1.414       .  A
C341        C343   1.413       .  A
C341        C342   1.410       .  A
C342        C350   1.409       .  A
C343        C352   1.402       .  A
C343        C344   1.402       .  A
C344        C345   1.396       .  A
C344        H355   1.084       .  S
C345        C346   1.403       .  A
C345        H356   1.083       .  S
C346        C347   1.397       .  A
C347        C348   1.410       .  A
C347        H357   1.084       .  S
C348        C349   1.409       .  A
C349        H358   1.084       .  S
C350        C351   1.412       .  A
C350        H359   1.084       .  S
C351        C352   1.405       .  A
C352        H360   1.084       .  S
C361        C362   1.399       .  A
C361        C366   1.404       .  A
C361        H377   1.084       .  S
C362        C363   1.403       .  A
C362        H378   1.083       .  S
C363        C373   1.406       .  A
C363        C364   1.413       .  A
C364        C370   1.411       .  A
C364        C365   1.415       .  A
C365        C367   1.414   1_565  A
C365        C366   1.410       .  A
C366        C374   1.403   1_565  A
C367        C376   1.409       .  A
C367        C368   1.404       .  A
C368        C369   1.402       .  A
C368        H379   1.083       .  S
C369        C370   1.405   1_545  A
C369        H380   1.084       .  S
C370        C371   1.406       .  A
C371        C372   1.407       .  A
C371        H381   1.085       .  S
C372        C373   1.405       .  A
C373        H382   1.084       .  S
C374        C375   1.407       .  A
C374        H383   1.085       .  S
C375        C376   1.407       .  A
C376        H384   1.084       .  S
C385        C386   1.395       .  A
C385        C390   1.402   1_545  A
C385        H401   1.084       .  S
C386        C387   1.402       .  A
C386        H402   1.084       .  S
C387        C397   1.397       .  A
C387        C388   1.411       .  A
C388        C394   1.413       .  A
C388        C389   1.413   1_545  A
C389        C391   1.414       .  A
C389        C390   1.411       .  A
C390        C398   1.397       .  A
C391        C400   1.411       .  A
C391        C392   1.405       .  A
C392        C393   1.404       .  A
C392        H403   1.083       .  S
C393        C394   1.405   1_565  A
C393        H404   1.083       .  S
C394        C395   1.411       .  A
C395        C396   1.407       .  A
C395        H405   1.084       .  S
C396        C397   1.404       .  A
C397        H406   1.085       .  S
C398        C399   1.402       .  A
C398        H407   1.085       .  S
C399        C400   1.406       .  A
C400        H408   1.084       .  S
C409        C410   1.403       .  A
C409        C414   1.405       .  A
C409        H425   1.083       .  S
C410        C411   1.405       .  A
C410        H426   1.084       .  S
C411        C421   1.410       .  A
C411        C412   1.411       .  A
C412        C418   1.411       .  A
C412        C413   1.414       .  A
C413        C415   1.410       .  A
C413        C414   1.412       .  A
C414        C422   1.410       .  A
C415        C424   1.399       .  A
C415        C416   1.402       .  A
C416        C417   1.396       .  A
C416        H427   1.084       .  S
C417        C418   1.403       .  A
C417        H428   1.083       .  S
C418        C419   1.400       .  A
C419        C420   1.408       .  A
C419        H429   1.084       .  S
C420        C421   1.411       .  A
C421        H430   1.084       .  S
C422        C423   1.410       .  A
C422        H431   1.084       .  S
C423        C424   1.408       .  A
C424        H432   1.084       .  S
C433        C434   1.397       .  A
C433        C438   1.403       .  A
C433        H449   1.083       .  S
C434        C435   1.403       .  A
C434        H450   1.084       .  S
C435        C445   1.402       .  A
C435        C436   1.411       .  A
C436        C442   1.411       .  A
C436        C437   1.415       .  A
C437        C439   1.412       .  A
C437        C438   1.410       .  A
C438        C446   1.401       .  A
C439        C448   1.410       .  A
C439        C440   1.405       .  A
C440        C441   1.403       .  A
C440        H451   1.083       .  S
C441        C442   1.405       .  A
C441        H452   1.083       .  S
C442        C443   1.409       .  A
C443        C444   1.410       .  A
C443        H453   1.084       .  S
C444        C445   1.408       .  A
C445        H454   1.084       .  S
C446        C447   1.409       .  A
C446        H455   1.084       .  S
C447        C448   1.410       .  A
C448        H456   1.084       .  S
C457        C458   1.394       .  A
C457        C462   1.402       .  A
C457        H473   1.084       .  S
C458        C459   1.401       .  A
C458        H474   1.084       .  S
C459        C469   1.395       .  A
C459        C460   1.411       .  A
C460        C466   1.413       .  A
C460        C461   1.410       .  A
C461        C463   1.412   1_655  A
C461        C462   1.410       .  A
C462        C470   1.395   1_655  A
C463        C472   1.408       .  A
C463        C464   1.405       .  A
C464        C465   1.402       .  A
C464        H475   1.083       .  S
C465        C466   1.405   1_455  A
C465        H476   1.083       .  S
C466        C467   1.407       .  A
C467        C468   1.406       .  A
C467        H477   1.084       .  S
C468        C469   1.402       .  A
C469        H478   1.085       .  S
C470        C471   1.407       .  A
C470        H479   1.084       .  S
C471        C472   1.408       .  A
C472        H480   1.084       .  S
C481        C482   1.396       .  A
C481        C486   1.402       .  A
C481        H497   1.084       .  S
C482        C483   1.403       .  A
C482        H498   1.084       .  S
C483        C493   1.397   1_455  A
C483        C484   1.410   1_455  A
C484        C490   1.413       .  A
C484        C485   1.410   1_655  A
C485        C487   1.412       .  A
C485        C486   1.412       .  A
C486        C494   1.398       .  A
C487        C496   1.404       .  A
C487        C488   1.404   1_455  A
C488        C489   1.400       .  A
C488        H499   1.083       .  S
C489        C490   1.404       .  A
C489        H500   1.083       .  S
C490        C491   1.406       .  A
C491        C492   1.406       .  A
C491        H501   1.084       .  S
C492        C493   1.409       .  A
C493        H502   1.084       .  S
C494        C495   1.403       .  A
C494        H503   1.085       .  S
C495        C496   1.404       .  A
C496        H504   1.084       .  S
C505        C506   1.404       .  A
C505        C510   1.405       .  A
C505        H521   1.083       .  S
C506        C507   1.405       .  A
C506        H522   1.084       .  S
C507        C517   1.410       .  A
C507        C508   1.411       .  A
C508        C514   1.411       .  A
C508        C509   1.414       .  A
C509        C511   1.409       .  A
C509        C510   1.413       .  A
C510        C518   1.412       .  A
C511        C520   1.398       .  A
C511        C512   1.403       .  A
C512        C513   1.396       .  A
C512        H523   1.084       .  S
C513        C514   1.402       .  A
C513        H524   1.083       .  S
C514        C515   1.400       .  A
C515        C516   1.407       .  A
C515        H525   1.084       .  S
C516        C517   1.410       .  A
C517        H526   1.084       .  S
C518        C519   1.410       .  A
C518        H527   1.084       .  S
C519        C520   1.409       .  A
C520        H528   1.084       .  S
C529        C530   1.397       .  A
C529        C534   1.403       .  A
C529        H545   1.084       .  S
C530        C531   1.403       .  A
C530        H546   1.083       .  S
C531        C541   1.401       .  A
C531        C532   1.410       .  A
C532        C538   1.412       .  A
C532        C533   1.416       .  A
C533        C535   1.412       .  A
C533        C534   1.411       .  A
C534        C542   1.401       .  A
C535        C544   1.413       .  A
C535        C536   1.406       .  A
C536        C537   1.405       .  A
C536        H547   1.083       .  S
C537        C538   1.406       .  A
C537        H548   1.084       .  S
C538        C539   1.413       .  A
C539        C540   1.412       .  A
C539        H549   1.084       .  S
C540        C541   1.408       .  A
C541        H550   1.084       .  S
C542        C543   1.408       .  A
C542        H551   1.085       .  S
C543        C544   1.411       .  A
C544        H552   1.084       .  S
C553        C554   1.395       .  A
C553        C558   1.401       .  A
C553        H569   1.084       .  S
C554        C555   1.403       .  A
C554        H570   1.084       .  S
C555        C565   1.394       .  A
C555        C556   1.408       .  A
C556        C562   1.414       .  A
C556        C557   1.411       .  A
C557        C559   1.410       .  A
C557        C558   1.413       .  A
C558        C566   1.399       .  A
C559        C568   1.405       .  A
C559        C560   1.406       .  A
C560        C561   1.402       .  A
C560        H571   1.083       .  S
C561        C562   1.404       .  A
C561        H572   1.084       .  S
C562        C563   1.410       .  A
C563        C564   1.408       .  A
C563        H573   1.084       .  S
C564        C565   1.408       .  A
C565        H574   1.084       .  S
C566        C567   1.404       .  A
C566        H575   1.084       .  S
C567        C568   1.411       .  A
C568        H576   1.084       .  S
C577        C578   1.397       .  A
C577        C582   1.403       .  A
C577        H593   1.083       .  S
C578        C579   1.402       .  A
C578        H594   1.084       .  S
C579        C589   1.402       .  A
C579        C580   1.412       .  A
C580        C586   1.410       .  A
C580        C581   1.411       .  A
C581        C583   1.413       .  A
C581        C582   1.409       .  A
C582        C590   1.399       .  A
C583        C592   1.405       .  A
C583        C584   1.403       .  A
C584        C585   1.400       .  A
C584        H595   1.084       .  S
C585        C586   1.404       .  A
C585        H596   1.083       .  S
C586        C587   1.403       .  A
C587        C588   1.409       .  A
C587        H597   1.084       .  S
C588        C589   1.406       .  A
C589        H598   1.084       .  S
C590        C591   1.408       .  A
C590        H599   1.084       .  S
C591        C592   1.407       .  A
C592        H600   1.084       .  S
C601        C602   1.396       .  A
C601        C606   1.402       .  A
C601        H617   1.084       .  S
C602        C603   1.402       .  A
C602        H618   1.084       .  S
C603        C613   1.398       .  A
C603        C604   1.410       .  A
C604        C610   1.412       .  A
C604        C605   1.410       .  A
C605        C607   1.411       .  A
C605        C606   1.411       .  A
C606        C614   1.398       .  A
C607        C616   1.405       .  A
C607        C608   1.404       .  A
C608        C609   1.401       .  A
C608        H619   1.084       .  S
C609        C610   1.404       .  A
C609        H620   1.083       .  S
C610        C611   1.406       .  A
C611        C612   1.408       .  A
C611        H621   1.084       .  S
C612        C613   1.406       .  A
C613        H622   1.084       .  S
C614        C615   1.406       .  A
C614        H623   1.084       .  S
C615        C616   1.408       .  A
C616        H624   1.084       .  S
C625        C626   1.401       .  A
C625        C630   1.404       .  A
C625        H641   1.083       .  S
C626        C627   1.404       .  A
C626        H642   1.083       .  S
C627        C637   1.408       .  A
C627        C628   1.412       .  A
C628        C634   1.410       .  A
C628        C629   1.413       .  A
C629        C631   1.411       .  A
C629        C630   1.411       .  A
C630        C638   1.406       .  A
C631        C640   1.401       .  A
C631        C632   1.403       .  A
C632        C633   1.397       .  A
C632        H643   1.084       .  S
C633        C634   1.403       .  A
C633        H644   1.084       .  S
C634        C635   1.400       .  A
C635        C636   1.409       .  A
C635        H645   1.084       .  S
C636        C637   1.408       .  A
C637        H646   1.084       .  S
C638        C639   1.409       .  A
C638        H647   1.084       .  S
C639        C640   1.407       .  A
C640        H648   1.084       .  S
C649        C650   1.402       .  A
C649        C654   1.404       .  A
C649        H665   1.084       .  S
C650        C651   1.406       .  A
C650        H666   1.083       .  S
C651        C661   1.407       .  A
C651        C652   1.410       .  A
C652        C658   1.412       .  A
C652        C653   1.413       .  A
C653        C655   1.409       .  A
C653        C654   1.414       .  A
C654        C662   1.410       .  A
C655        C664   1.398       .  A
C655        C656   1.403       .  A
C656        C657   1.397       .  A
C656        H667   1.084       .  S
C657        C658   1.402       .  A
C657        H668   1.084       .  S
C658        C659   1.402       .  A
C659        C660   1.407       .  A
C659        H669   1.084       .  S
C660        C661   1.411       .  A
C661        H670   1.084       .  S
C662        C663   1.407       .  A
C662        H671   1.084       .  S
C663        C664   1.407       .  A
C664        H672   1.084       .  S
C673        C674   1.396       .  A
C673        C678   1.402       .  A
C673        H689   1.084       .  S
C674        C675   1.403       .  A
C674        H690   1.084       .  S
C675        C685   1.396       .  A
C675        C676   1.409       .  A
C676        C682   1.413       .  A
C676        C677   1.411       .  A
C677        C679   1.410       .  A
C677        C678   1.412       .  A
C678        C686   1.400       .  A
C679        C688   1.405       .  A
C679        C680   1.405       .  A
C680        C681   1.401       .  A
C680        H691   1.083       .  S
C681        C682   1.404       .  A
C681        H692   1.084       .  S
C682        C683   1.408       .  A
C683        C684   1.406       .  A
C683        H693   1.084       .  S
C684        C685   1.408       .  A
C685        H694   1.084       .  S
C686        C687   1.406       .  A
C686        H695   1.084       .  S
C687        C688   1.410       .  A
C688        H696   1.084       .  S
C697        C698   1.403       .  A
C697        C702   1.405       .  A
C697        H713   1.084       .  S
C698        C699   1.405   1_565  A
C698        H714   1.083       .  S
C699        C709   1.408       .  A
C699        C700   1.412       .  A
C700        C706   1.412       .  A
C700        C701   1.412   1_545  A
C701        C703   1.409       .  A
C701        C702   1.413       .  A
C702        C710   1.410       .  A
C703        C712   1.397       .  A
C703        C704   1.403   1_565  A
C704        C705   1.396       .  A
C704        H715   1.084       .  S
C705        C706   1.402       .  A
C705        H716   1.084       .  S
C706        C707   1.399       .  A
C707        C708   1.403       .  A
C707        H717   1.085       .  S
C708        C709   1.407       .  A
C709        H718   1.084       .  S
C710        C711   1.409       .  A
C710        H719   1.084       .  S
C711        C712   1.409       .  A
C712        H720   1.084       .  S
C721        C722   1.401   1_565  A
C721        C726   1.404       .  A
C721        H737   1.083       .  S
C722        C723   1.404       .  A
C722        H738   1.083       .  S
C723        C733   1.408       .  A
C723        C724   1.413   1_545  A
C724        C730   1.409       .  A
C724        C725   1.409       .  A
C725        C727   1.411       .  A
C725        C726   1.412       .  A
C726        C734   1.406       .  A
C727        C736   1.394       .  A
C727        C728   1.401       .  A
C728        C729   1.394       .  A
C728        H739   1.084       .  S
C729        C730   1.402       .  A
C729        H740   1.084       .  S
C730        C731   1.393   1_565  A
C731        C732   1.408       .  A
C731        H741   1.084       .  S
C732        C733   1.407       .  A
C733        H742   1.084       .  S
C734        C735   1.405       .  A
C734        H743   1.084       .  S
C735        C736   1.404       .  A
C736        H744   1.085       .  S
C745        C746   1.399       .  A
C745        C750   1.404       .  A
C745        H761   1.084       .  S
C746        C747   1.404       .  A
C746        H762   1.083       .  S
C747        C757   1.404       .  A
C747        C748   1.412       .  A
C748        C754   1.411       .  A
C748        C749   1.412       .  A
C749        C751   1.413       .  A
C749        C750   1.410       .  A
C750        C758   1.401       .  A
C751        C760   1.404       .  A
C751        C752   1.403       .  A
C752        C753   1.399       .  A
C752        H763   1.083       .  S
C753        C754   1.404       .  A
C753        H764   1.084       .  S
C754        C755   1.402       .  A
C755        C756   1.407       .  A
C755        H765   1.084       .  S
C756        C757   1.408       .  A
C757        H766   1.084       .  S
C758        C759   1.407       .  A
C758        H767   1.084       .  S
C759        C760   1.406       .  A
C760        H768   1.084       .  S
C769        C770   1.398       .  A
C769        C774   1.403       .  A
C769        H785   1.084       .  S
C770        C771   1.403       .  A
C770        H786   1.083       .  S
C771        C781   1.403       .  A
C771        C772   1.412       .  A
C772        C778   1.411       .  A
C772        C773   1.412       .  A
C773        C775   1.414       .  A
C773        C774   1.410       .  A
C774        C782   1.399       .  A
C775        C784   1.407       .  A
C775        C776   1.403       .  A
C776        C777   1.400       .  A
C776        H787   1.084       .  S
C777        C778   1.404       .  A
C777        H788   1.083       .  S
C778        C779   1.404       .  A
C779        C780   1.409       .  A
C779        H789   1.084       .  S
C780        C781   1.407       .  A
C781        H790   1.084       .  S
C782        C783   1.406       .  A
C782        H791   1.085       .  S
C783        C784   1.404       .  A
C784        H792   1.084       .  S
C793        C794   1.396       .  A
C793        C798   1.403       .  A
C793        H809   1.083       .  S
C794        C795   1.402       .  A
C794        H810   1.084       .  S
C795        C805   1.400       .  A
C795        C796   1.412       .  A
C796        C802   1.410       .  A
C796        C797   1.411       .  A
C797        C799   1.414       .  A
C797        C798   1.409       .  A
C798        C806   1.397       .  A
C799        C808   1.408       .  A
C799        C800   1.404       .  A
C800        C801   1.401       .  A
C800        H811   1.084       .  S
C801        C802   1.405       .  A
C801        H812   1.083       .  S
C802        C803   1.405       .  A
C803        C804   1.409       .  A
C803        H813   1.084       .  S
C804        C805   1.406       .  A
C805        H814   1.084       .  S
C806        C807   1.408       .  A
C806        H815   1.084       .  S
C807        C808   1.406       .  A
C808        H816   1.084       .  S
C817        C818   1.395       .  A
C817        C822   1.401       .  A
C817        H833   1.084       .  S
C818        C819   1.403       .  A
C818        H834   1.084       .  S
C819        C829   1.395       .  A
C819        C820   1.408       .  A
C820        C826   1.414       .  A
C820        C821   1.412       .  A
C821        C823   1.410       .  A
C821        C822   1.413       .  A
C822        C830   1.400       .  A
C823        C832   1.406       .  A
C823        C824   1.406       .  A
C824        C825   1.402       .  A
C824        H835   1.083       .  S
C825        C826   1.404       .  A
C825        H836   1.084       .  S
C826        C827   1.410       .  A
C827        C828   1.408       .  A
C827        H837   1.084       .  S
C828        C829   1.409       .  A
C829        H838   1.084       .  S
C830        C831   1.404       .  A
C830        H839   1.084       .  S
C831        C832   1.411       .  A
C832        H840   1.084       .  S
C841        C842   1.395       .  A
C841        C846   1.403   1_455  A
C841        H857   1.084       .  S
C842        C843   1.401       .  A
C842        H858   1.084       .  S
C843        C853   1.397       .  A
C843        C844   1.412       .  A
C844        C850   1.412   1_455  A
C844        C845   1.411   1_455  A
C845        C847   1.413       .  A
C845        C846   1.410       .  A
C846        C854   1.397       .  A
C847        C856   1.409       .  A
C847        C848   1.405       .  A
C848        C849   1.402       .  A
C848        H859   1.083       .  S
C849        C850   1.405       .  A
C849        H860   1.083       .  S
C850        C851   1.407   1_655  A
C851        C852   1.406       .  A
C851        H861   1.084       .  S
C852        C853   1.402       .  A
C853        H862   1.085       .  S
C854        C855   1.407       .  A
C854        H863   1.084       .  S
C855        C856   1.408       .  A
C856        H864   1.084       .  S
C865        C866   1.396       .  A
C865        C870   1.402       .  A
C865        H881   1.084       .  S
C866        C867   1.403       .  A
C866        H882   1.084       .  S
C867        C877   1.398   1_655  A
C867        C868   1.409       .  A
C868        C874   1.413   1_655  A
C868        C869   1.413       .  A
C869        C871   1.412       .  A
C869        C870   1.412       .  A
C870        C878   1.400       .  A
C871        C880   1.408       .  A
C871        C872   1.405       .  A
C872        C873   1.402   1_655  A
C872        H883   1.083       .  S
C873        C874   1.404       .  A
C873        H884   1.083       .  S
C874        C875   1.410       .  A
C875        C876   1.408       .  A
C875        H885   1.084       .  S
C876        C877   1.410       .  A
C877        H886   1.084   1_455  S
C878        C879   1.405       .  A
C878        H887   1.085       .  S
C879        C880   1.406       .  A
C880        H888   1.084       .  S
C889        C890   1.393       .  A
C889        C894   1.402       .  A
C889        H905   1.084       .  S
C890        C891   1.400       .  A
C890        H906   1.084       .  S
C891        C901   1.396       .  A
C891        C892   1.412       .  A
C892        C898   1.412       .  A
C892        C893   1.413       .  A
C893        C895   1.414       .  A
C893        C894   1.408       .  A
C894        C902   1.392       .  A
C895        C904   1.415       .  A
C895        C896   1.406       .  A
C896        C897   1.406       .  A
C896        H907   1.083       .  S
C897        C898   1.407       .  A
C897        H908   1.083       .  S
C898        C899   1.413       .  A
C899        C900   1.411       .  A
C899        H909   1.084       .  S
C900        C901   1.403       .  A
C901        H910   1.085       .  S
C902        C903   1.408       .  A
C902        H911   1.084       .  S
C903        C904   1.411       .  A
C904        H912   1.084       .  S
C913        C914   1.403       .  A
C913        C918   1.405       .  A
C913        H929   1.083       .  S
C914        C915   1.405       .  A
C914        H930   1.083       .  S
C915        C925   1.411       .  A
C915        C916   1.413       .  A
C916        C922   1.409       .  A
C916        C917   1.413       .  A
C917        C919   1.412       .  A
C917        C918   1.412       .  A
C918        C926   1.409       .  A
C919        C928   1.400       .  A
C919        C920   1.402       .  A
C920        C921   1.396       .  A
C920        H931   1.084       .  S
C921        C922   1.403       .  A
C921        H932   1.084       .  S
C922        C923   1.398       .  A
C923        C924   1.408       .  A
C923        H933   1.085       .  S
C924        C925   1.408       .  A
C925        H934   1.084       .  S
C926        C927   1.407       .  A
C926        H935   1.084       .  S
C927        C928   1.403       .  A
C928        H936   1.085       .  S
C937        C938   1.398       .  A
C937        C942   1.403       .  A
C937        H953   1.084       .  S
C938        C939   1.404       .  A
C938        H954   1.083       .  S
C939        C949   1.402       .  A
C939        C940   1.410       .  A
C940        C946   1.412       .  A
C940        C941   1.413       .  A
C941        C943   1.412       .  A
C941        C942   1.412       .  A
C942        C950   1.402       .  A
C943        C952   1.406       .  A
C943        C944   1.404       .  A
C944        C945   1.401       .  A
C944        H955   1.083       .  S
C945        C946   1.404       .  A
C945        H956   1.084       .  S
C946        C947   1.407       .  A
C947        C948   1.407       .  A
C947        H957   1.084       .  S
C948        C949   1.409       .  A
C949        H958   1.084       .  S
C950        C951   1.406       .  A
C950        H959   1.085       .  S
C951        C952   1.407       .  A
C952        H960   1.084       .  S
C961        C962   1.395       .  A
C961        C966   1.402       .  A
C961        H977   1.084       .  S
C962        C963   1.402       .  A
C962        H978   1.083       .  S
C963        C973   1.398       .  A
C963        C964   1.410       .  A
C964        C970   1.412       .  A
C964        C965   1.413       .  A
C965        C967   1.411       .  A
C965        C966   1.411       .  A
C966        C974   1.398       .  A
C967        C976   1.409       .  A
C967        C968   1.405       .  A
C968        C969   1.403       .  A
C968        H979   1.083       .  S
C969        C970   1.405       .  A
C969        H980   1.084       .  S
C970        C971   1.410       .  A
C971        C972   1.409       .  A
C971        H981   1.084       .  S
C972        C973   1.407       .  A
C973        H982   1.084       .  S
C974        C975   1.407       .  A
C974        H983   1.084       .  S
C975        C976   1.410       .  A
C976        H984   1.084       .  S
C985        C986   1.402       .  A
C985        C990   1.404       .  A
C985       H1001   1.083       .  S
C986        C987   1.404       .  A
C986       H1002   1.083       .  S
C987        C997   1.407       .  A
C987        C988   1.412       .  A
C988        C994   1.411       .  A
C988        C989   1.411       .  A
C989        C991   1.409       .  A
C989        C990   1.413       .  A
C990        C998   1.408       .  A
C991       C1000   1.397       .  A
C991        C992   1.403       .  A
C992        C993   1.396       .  A
C992       H1003   1.084       .  S
C993        C994   1.402       .  A
C993       H1004   1.084       .  S
C994        C995   1.397       .  A
C995        C996   1.405       .  A
C995       H1005   1.085       .  S
C996        C997   1.406       .  A
C997       H1006   1.084       .  S
C998        C999   1.407       .  A
C998       H1007   1.084       .  S
C999       C1000   1.410       .  A
C1000      H1008   1.084       .  S
C1009      C1010   1.401       .  A
C1009      C1014   1.404       .  A
C1009      H1025   1.083       .  S
C1010      C1011   1.404       .  A
C1010      H1026   1.083       .  S
C1011      C1021   1.407       .  A
C1011      C1012   1.412       .  A
C1012      C1018   1.410       .  A
C1012      C1013   1.411       .  A
C1013      C1015   1.412       .  A
C1013      C1014   1.412       .  A
C1014      C1022   1.406       .  A
C1015      C1024   1.397       .  A
C1015      C1016   1.402       .  A
C1016      C1017   1.396       .  A
C1016      H1027   1.084       .  S
C1017      C1018   1.403       .  A
C1017      H1028   1.084       .  S
C1018      C1019   1.397       .  A
C1019      C1020   1.408       .  A
C1019      H1029   1.084       .  S
C1020      C1021   1.407       .  A
C1021      H1030   1.084       .  S
C1022      C1023   1.406       .  A
C1022      H1031   1.084       .  S
C1023      C1024   1.403       .  A
C1024      H1032   1.085       .  S
C1033      C1034   1.400       .  A
C1033      C1038   1.403       .  A
C1033      H1049   1.084       .  S
C1034      C1035   1.405       .  A
C1034      H1050   1.083       .  S
C1035      C1045   1.403       .  A
C1035      C1036   1.410       .  A
C1036      C1042   1.413       .  A
C1036      C1037   1.410       .  A
C1037      C1039   1.408       .  A
C1037      C1038   1.414       .  A
C1038      C1046   1.407       .  A
C1039      C1048   1.394       .  A
C1039      C1040   1.403       .  A
C1040      C1041   1.395       .  A
C1040      H1051   1.084       .  S
C1041      C1042   1.402       .  A
C1041      H1052   1.084       .  S
C1042      C1043   1.399       .  A
C1043      C1044   1.404       .  A
C1043      H1053   1.084       .  S
C1044      C1045   1.408       .  A
C1045      H1054   1.084       .  S
C1046      C1047   1.406       .  A
C1046      H1055   1.084       .  S
C1047      C1048   1.409       .  A
C1048      H1056   1.084       .  S
C1057      C1058   1.403       .  A
C1057      C1062   1.405       .  A
C1057      H1073   1.084       .  S
C1058      C1059   1.406       .  A
C1058      H1074   1.083       .  S
C1059      C1069   1.406       .  A
C1059      C1060   1.410       .  A
C1060      C1066   1.412       .  A
C1060      C1061   1.410       .  A
C1061      C1063   1.408       .  A
C1061      C1062   1.413       .  A
C1062      C1070   1.410       .  A
C1063      C1072   1.393       .  A
C1063      C1064   1.402       .  A
C1064      C1065   1.394       .  A
C1064      H1075   1.084       .  S
C1065      C1066   1.401       .  A
C1065      H1076   1.084       .  S
C1066      C1067   1.396       .  A
C1067      C1068   1.404       .  A
C1067      H1077   1.085       .  S
C1068      C1069   1.410       .  A
C1069      H1078   1.084       .  S
C1070      C1071   1.408       .  A
C1070      H1079   1.084       .  S
C1071      C1072   1.407       .  A
C1072      H1080   1.084       .  S
C1081      C1082   1.399       .  A
C1081      C1086   1.404       .  A
C1081      H1097   1.083       .  S
C1082      C1083   1.404       .  A
C1082      H1098   1.084       .  S
C1083      C1093   1.403       .  A
C1083      C1084   1.410       .  A
C1084      C1090   1.412       .  A
C1084      C1085   1.414       .  A
C1085      C1087   1.411       .  A
C1085      C1086   1.412       .  A
C1086      C1094   1.405       .  A
C1087      C1096   1.405       .  A
C1087      C1088   1.404       .  A
C1088      C1089   1.400       .  A
C1088      H1099   1.084       .  S
C1089      C1090   1.404       .  A
C1089      H1100   1.083       .  S
C1090      C1091   1.407       .  A
C1091      C1092   1.408       .  A
C1091      H1101   1.084       .  S
C1092      C1093   1.409       .  A
C1093      H1102   1.084       .  S
C1094      C1095   1.409       .  A
C1094      H1103   1.084       .  S
C1095      C1096   1.409       .  A
C1096      H1104   1.084       .  S
C1105      C1106   1.397       .  A
C1105      C1110   1.403       .  A
C1105      H1121   1.084       .  S
C1106      C1107   1.403       .  A
C1106      H1122   1.083       .  S
C1107      C1117   1.400       .  A
C1107      C1108   1.410       .  A
C1108      C1114   1.412       .  A
C1108      C1109   1.413       .  A
C1109      C1111   1.411       .  A
C1109      C1110   1.411       .  A
C1110      C1118   1.401       .  A
C1111      C1120   1.407       .  A
C1111      C1112   1.405       .  A
C1112      C1113   1.402       .  A
C1112      H1123   1.083       .  S
C1113      C1114   1.405       .  A
C1113      H1124   1.084       .  S
C1114      C1115   1.407       .  A
C1115      C1116   1.409       .  A
C1115      H1125   1.084       .  S
C1116      C1117   1.407       .  A
C1117      H1126   1.084       .  S
C1118      C1119   1.407       .  A
C1118      H1127   1.084       .  S
C1119      C1120   1.410       .  A
C1120      H1128   1.084       .  S
O1129     Cr1147   1.968       .  S
O1129      C1137   1.262       .  A
O1130     Cr1147   1.991       .  S
O1130      C1131   1.261       .  A
C1131      O1132   1.261       .  A
C1131      C2148   1.481       .  S
O1132     Cr1148   1.993       .  S
O1133     Cr1148   2.025       .  S
O1133      C1134   1.271       .  A
C1134      O1135   1.261       .  A
C1134      C2220   1.485       .  S
O1135     Cr1149   1.970       .  S
O1136     Cr1149   2.018       .  S
O1136      C1137   1.270       .  A
C1137      C2172   1.478       .  S
O1138     Cr1147   1.986       .  S
O1138      C1146   1.261       .  A
O1139     Cr1147   1.958       .  S
O1139      C1140   1.260       .  A
C1140      O1141   1.273       .  A
C1140      C2124   1.477       .  S
O1141     Cr1148   2.033       .  S
O1142     Cr1148   1.980       .  S
O1142      C1143   1.260       .  A
C1143      O1144   1.266       .  A
C1143      C2244   1.481       .  S
O1144     Cr1149   2.000       .  S
O1145     Cr1149   1.999       .  S
O1145      C1146   1.261       .  A
C1146      C2199   1.480       .  S
Cr1147     O1150   1.758       .  S
Cr1148     O1150   1.771       .  S
Cr1149     O1150   1.766       .  S
O1151     Cr1169   1.985       .  S
O1151      C1159   1.259       .  A
O1152     Cr1169   1.962       .  S
O1152      C1153   1.260       .  A
C1153      O1154   1.273       .  A
C1153      C2055   1.474       .  S
O1155      C1156   1.263       .  A
C1156      O1157   1.266       .  A
C1156      C2100   1.482       .  S
O1157     Cr1171   1.997       .  S
O1158     Cr1171   1.998       .  S
O1158      C1159   1.262       .  A
C1159      C2175   1.480       .  S
O1160      C1168   1.264       .  A
O1161      C1162   1.259       .  A
C1162      O1163   1.264       .  A
C1162      C2031   1.490       .  S
O1163     Cr1170   2.014       .  S
O1164     Cr1170   2.014       .  S
O1164      C1165   1.268       .  A
C1165      O1166   1.261       .  A
C1165      C2079   1.479       .  S
O1167      C1168   1.269       .  A
C1168      C2196   1.481       .  S
Cr1169     O1172   1.756       .  S
Cr1171     O1172   1.767       .  S
O1173     Cr1191   1.978       .  S
O1173      C1181   1.265       .  A
O1174     Cr1191   1.987       .  S
O1174      C1175   1.261       .  A
C1175      O1176   1.263       .  A
C1175      C2004   1.487       .  S
O1176     Cr1192   2.003       .  S
O1177     Cr1192   2.017       .  S
O1177      C1178   1.269       .  A
C1178      O1179   1.261       .  A
C1178      C2103   1.483       .  S
O1179     Cr1193   1.966       .  S
O1180     Cr1193   2.013       .  S
O1180      C1181   1.268       .  A
C1181      C1959   1.482       .  S
O1182     Cr1191   1.989       .  S
O1182      C1190   1.260       .  A
O1183     Cr1191   1.963       .  S
O1183      C1184   1.261       .  A
C1184      O1185   1.269       .  A
C1184      C1980   1.467       .  S
O1185     Cr1192   2.022       .  S
O1186     Cr1192   1.993       .  S
O1186      C1187   1.262       .  A
C1187      O1188   1.263       .  A
C1187      C2076   1.483       .  S
O1188     Cr1193   1.995       .  S
O1189     Cr1193   1.994       .  S
O1189      C1190   1.261       .  A
C1190      C1935   1.478       .  S
Cr1191     O1194   1.760       .  S
Cr1192     O1194   1.776       .  S
Cr1193     O1194   1.769       .  S
O1195     Cr1213   1.989       .  S
O1195      C1203   1.259       .  A
O1196     Cr1213   1.960       .  S
O1196      C1197   1.259       .  A
C1197      O1198   1.270       .  A
C1197      C1863   1.471       .  S
O1199      C1200   1.262       .  A
C1200      O1201   1.268       .  A
C1200      C2223   1.488       .  S
O1201     Cr1215   2.011       .  S
O1202     Cr1215   1.996       .  S
O1202      C1203   1.260       .  A
C1203      C1911   1.475       .  S
O1204      C1212   1.262       .  A
O1205      C1206   1.261       .  A
C1206      O1207   1.263       .  A
C1206      C1839   1.485       .  S
O1207     Cr1214   2.002   1_556  S
O1208     Cr1214   2.015   1_556  S
O1208      C1209   1.267       .  A
C1209      O1210   1.260       .  A
C1209      C2247   1.481       .  S
O1211      C1212   1.272       .  A
C1212      C1884   1.479       .  S
Cr1213     O1216   1.763       .  S
Cr1215     O1216   1.768       .  S
O1217     Cr1235   1.986       .  S
O1217      C1225   1.260       .  A
O1218     Cr1235   1.970       .  S
O1218      C1219   1.261       .  A
C1219      O1220   1.270       .  A
C1219      C2007   1.475       .  S
O1221      C1222   1.260       .  A
C1222      O1223   1.266       .  A
C1222      C1767   1.482       .  S
O1223     Cr1237   2.001       .  S
O1224     Cr1237   1.998       .  S
O1224      C1225   1.260       .  A
C1225      C1812   1.482       .  S
O1226      C1234   1.264       .  A
O1227      C1228   1.261       .  A
C1228      O1229   1.260       .  A
C1228      C1983   1.481       .  S
O1229     Cr1236   1.993       .  S
O1230     Cr1236   2.019       .  S
O1230      C1231   1.270       .  A
C1231      O1232   1.260       .  A
C1231      C1740   1.482       .  S
O1233      C1234   1.270       .  A
C1234      C1788   1.483       .  S
Cr1235     O1238   1.759       .  S
Cr1237     O1238   1.767       .  S
O1239     Cr1257   1.982       .  S
O1239      C1247   1.264       .  A
O1240     Cr1257   1.988       .  S
O1240      C1241   1.261       .  A
C1241      O1242   1.261       .  A
C1241      C1860   1.483       .  S
O1242     Cr1258   1.996       .  S
O1243     Cr1258   2.023       .  S
O1243      C1244   1.271       .  A
C1244      O1245   1.260       .  A
C1244      C1764   1.485       .  S
O1245     Cr1259   1.965       .  S
O1246     Cr1259   2.009       .  S
O1246      C1247   1.268       .  A
C1247      C1716   1.481       .  S
O1248     Cr1257   1.992       .  S
O1248      C1256   1.261       .  A
O1249     Cr1257   1.966       .  S
O1249      C1250   1.261       .  A
C1250      O1251   1.271       .  A
C1250      C1836   1.475       .  S
O1251     Cr1258   2.028       .  S
O1252     Cr1258   1.984       .  S
O1252      C1253   1.261       .  A
C1253      O1254   1.263       .  A
C1253      C1743   1.483       .  S
O1254     Cr1259   1.997       .  S
O1255     Cr1259   1.994       .  S
O1255      C1256   1.261       .  A
C1256      C1692   1.482       .  S
Cr1257     O1260   1.760       .  S
Cr1258     O1260   1.774       .  S
Cr1259     O1260   1.767       .  S
O1261     Cr1279   1.975       .  S
O1261      C1269   1.263       .  A
O1262     Cr1279   1.988       .  S
O1262      C1263   1.259       .  A
C1263      O1264   1.261       .  A
C1263      C1620   1.480       .  S
O1264     Cr1280   1.995       .  S
O1265     Cr1280   2.030       .  S
O1265      C1266   1.273       .  A
C1266      O1267   1.262       .  A
C1266      C1647   1.489       .  S
O1267     Cr1281   1.964       .  S
O1268     Cr1281   2.018       .  S
O1268      C1269   1.269       .  A
C1269      C1815   1.481       .  S
O1270     Cr1279   1.992       .  S
O1270      C1278   1.261       .  A
O1271     Cr1279   1.951       .  S
O1271      C1272   1.260       .  A
C1272      O1273   1.272       .  A
C1272      C1596   1.475       .  S
O1273     Cr1280   2.034       .  S
O1274     Cr1280   1.992       .  S
O1274      C1275   1.261       .  A
C1275      O1276   1.265       .  A
C1275      C1668   1.489       .  S
O1276     Cr1281   2.002       .  S
O1277     Cr1281   1.994       .  S
O1277      C1278   1.262       .  A
C1278      C1791   1.480       .  S
Cr1279     O1282   1.762       .  S
Cr1280     O1282   1.776       .  S
Cr1281     O1282   1.768       .  S
O1283     Cr1301   1.994       .  S
O1283      C1291   1.262       .  A
O1284     Cr1301   1.961       .  S
O1284      C1285   1.260       .  A
C1285      O1286   1.272       .  A
C1285      C1524   1.476       .  S
O1287      C1288   1.262       .  A
C1288      O1289   1.265       .  A
C1288      C1548   1.486       .  S
O1289     Cr1303   1.997       .  S
O1290     Cr1303   1.994       .  S
O1290      C1291   1.262       .  A
C1291      C1719   1.482       .  S
O1292      C1300   1.263       .  A
O1293      C1294   1.261       .  A
C1294      O1295   1.260       .  A
C1294      C1503   1.478       .  S
O1295     Cr1302   1.997       .  S
O1296     Cr1302   2.026       .  S
O1296      C1297   1.271       .  A
C1297      O1298   1.261       .  A
C1297      C1572   1.489       .  S
O1299      C1300   1.270       .  A
C1300      C1695   1.483       .  S
Cr1301     O1304   1.763       .  S
Cr1303     O1304   1.766       .  S
O1305     Cr1323   1.987       .  S
O1305      C1313   1.258       .  A
O1306     Cr1323   1.961       .  S
O1306      C1307   1.261       .  A
C1307      O1308   1.273       .  A
C1307      C2151   1.471       .  S
O1309      C1310   1.262       .  A
C1310      O1311   1.266       .  A
C1310      C1644   1.487       .  S
O1311     Cr1325   1.997       .  S
O1312     Cr1325   2.008       .  S
O1312      C1313   1.262       .  A
C1313      C1476   1.485       .  S
O1314      C1322   1.263       .  A
O1315      C1316   1.259       .  A
C1316      O1317   1.262       .  A
C1316      C2127   1.485       .  S
O1317     Cr1324   2.004       .  S
O1318     Cr1324   2.022       .  S
O1318      C1319   1.269       .  A
C1319      O1320   1.262       .  A
C1319      C1671   1.487       .  S
O1321      C1322   1.270       .  A
C1322      C1455   1.478       .  S
Cr1323     O1326   1.762       .  S
Cr1325     O1326   1.765       .  S
O1327     Cr1345   1.983       .  S
O1327      C1335   1.264       .  A
O1328     Cr1345   1.988       .  S
O1328      C1329   1.261       .  A
C1329      O1330   1.262       .  A
C1329      C2052   1.483       .  S
O1330     Cr1346   1.999       .  S
O1331     Cr1346   2.023       .  S
O1331      C1332   1.271       .  A
C1332      O1333   1.261       .  A
C1332      C1551   1.485       .  S
O1333     Cr1347   1.963       .  S
O1334     Cr1347   2.018       .  S
O1334      C1335   1.268       .  A
C1335      C1479   1.482       .  S
O1336     Cr1345   1.991       .  S
O1336      C1344   1.262       .  A
O1337     Cr1345   1.968       .  S
O1337      C1338   1.262       .  A
C1338      O1339   1.272       .  A
C1338      C2028   1.481       .  S
O1339     Cr1346   2.034       .  S
O1340     Cr1346   1.991       .  S
O1340      C1341   1.263       .  A
C1341      O1342   1.265       .  A
C1341      C1575   1.489       .  S
O1342     Cr1347   2.002       .  S
O1343     Cr1347   1.986       .  S
O1343      C1344   1.260       .  A
C1344      C1452   1.476       .  S
Cr1345     O1348   1.760       .  S
Cr1346     O1348   1.776       .  S
Cr1347     O1348   1.769       .  S
O1349     Cr1367   1.985       .  S
O1349      C1357   1.259       .  A
O1350     Cr1367   1.964       .  S
O1350      C1351   1.260       .  A
C1351      O1352   1.271       .  A
C1351      C1623   1.468       .  S
O1353      C1354   1.260       .  A
C1354      O1355   1.266       .  A
C1354      C1431   1.483       .  S
O1355     Cr1369   2.002       .  S
O1356     Cr1369   2.001       .  S
O1356      C1357   1.261       .  A
C1357      C1956   1.483       .  S
O1358      C1366   1.264       .  A
O1359      C1360   1.260       .  A
C1360      O1361   1.260       .  A
C1360      C1599   1.481       .  S
O1361     Cr1368   1.994       .  S
O1362     Cr1368   2.015       .  S
O1362      C1363   1.269       .  A
C1363      O1364   1.261       .  A
C1363      C1404   1.487       .  S
O1365      C1366   1.272       .  A
C1366      C1932   1.480       .  S
Cr1367     O1370   1.760       .  S
Cr1369     O1370   1.768       .  S
O1371     Cr1389   2.010       .  S
O1371      C1379   1.264       .  A
O1372     Cr1389   1.961       .  S
O1372      C1373   1.259       .  A
C1373      O1374   1.270       .  A
C1373      C1527   1.471       .  S
O1374     Cr1390   2.027       .  S
O1375     Cr1390   1.980       .  S
O1375      C1376   1.262       .  A
C1376      O1377   1.266       .  A
C1376      C1428   1.474       .  S
O1377     Cr1391   2.001       .  S
O1378     Cr1391   1.977       .  S
O1378      C1379   1.258       .  A
C1379      C1908   1.485       .  S
O1380     Cr1389   1.965       .  S
O1380      C1388   1.260       .  A
O1381     Cr1389   2.008       .  S
O1381      C1382   1.263       .  A
C1382      O1383   1.260       .  A
C1382      C1500   1.476       .  S
O1383     Cr1390   1.990       .  S
O1384     Cr1390   2.011       .  S
O1384      C1385   1.266       .  A
C1385      O1386   1.259       .  A
C1385      C1407   1.483       .  S
O1386     Cr1391   1.974       .  S
O1387     Cr1391   2.013       .  S
O1387      C1388   1.268       .  A
C1388      C1887   1.476       .  S
Cr1389     O1392   1.775       .  S
Cr1390     O1392   1.780       .  S
Cr1391     O1392   1.776       .  S
C1393      C1394   1.398       .  A
C1393      C1398   1.403       .  A
C1393      H1409   1.084       .  S
C1394      C1395   1.403       .  A
C1394      H1410   1.084       .  S
C1395      C1405   1.401       .  A
C1395      C1396   1.410       .  A
C1396      C1402   1.412       .  A
C1396      C1397   1.414       .  A
C1397      C1399   1.411       .  A
C1397      C1398   1.412       .  A
C1398      C1406   1.403       .  A
C1399      C1408   1.407       .  A
C1399      C1400   1.404       .  A
C1400      C1401   1.401       .  A
C1400      H1411   1.083       .  S
C1401      C1402   1.404       .  A
C1401      H1412   1.083       .  S
C1402      C1403   1.408       .  A
C1403      C1404   1.409       .  A
C1403      H1413   1.084       .  S
C1404      C1405   1.409       .  A
C1405      H1414   1.084       .  S
C1406      C1407   1.407       .  A
C1406      H1415   1.084       .  S
C1407      C1408   1.408       .  A
C1408      H1416   1.084       .  S
C1417      C1418   1.397       .  A
C1417      C1422   1.403       .  A
C1417      H1433   1.084       .  S
C1418      C1419   1.402       .  A
C1418      H1434   1.084       .  S
C1419      C1429   1.400       .  A
C1419      C1420   1.411       .  A
C1420      C1426   1.413       .  A
C1420      C1421   1.412       .  A
C1421      C1423   1.411       .  A
C1421      C1422   1.411       .  A
C1422      C1430   1.400       .  A
C1423      C1432   1.406       .  A
C1423      C1424   1.405       .  A
C1424      C1425   1.401       .  A
C1424      H1435   1.083       .  S
C1425      C1426   1.404       .  A
C1425      H1436   1.084       .  S
C1426      C1427   1.407       .  A
C1427      C1428   1.406       .  A
C1427      H1437   1.084       .  S
C1428      C1429   1.404       .  A
C1429      H1438   1.085       .  S
C1430      C1431   1.407       .  A
C1430      H1439   1.084       .  S
C1431      C1432   1.410       .  A
C1432      H1440   1.084       .  S
C1441      C1442   1.400       .  A
C1441      C1446   1.405       .  A
C1441      H1457   1.083       .  S
C1442      C1443   1.404       .  A
C1442      H1458   1.084       .  S
C1443      C1453   1.406       .  A
C1443      C1444   1.413       .  A
C1444      C1450   1.409       .  A
C1444      C1445   1.409       .  A
C1445      C1447   1.412       .  A
C1445      C1446   1.410       .  A
C1446      C1454   1.403       .  A
C1447      C1456   1.398       .  A
C1447      C1448   1.402       .  A
C1448      C1449   1.395       .  A
C1448      H1459   1.084       .  S
C1449      C1450   1.402       .  A
C1449      H1460   1.084       .  S
C1450      C1451   1.394       .  A
C1451      C1452   1.406       .  A
C1451      H1461   1.084       .  S
C1452      C1453   1.406       .  A
C1453      H1462   1.084       .  S
C1454      C1455   1.409       .  A
C1454      H1463   1.084       .  S
C1455      C1456   1.405       .  A
C1456      H1464   1.084       .  S
C1465      C1466   1.402       .  A
C1465      C1470   1.405       .  A
C1465      H1481   1.083       .  S
C1466      C1467   1.404       .  A
C1466      H1482   1.084       .  S
C1467      C1477   1.411       .  A
C1467      C1468   1.414       .  A
C1468      C1474   1.408       .  A
C1468      C1469   1.413       .  A
C1469      C1471   1.413       .  A
C1469      C1470   1.410       .  A
C1470      C1478   1.406       .  A
C1471      C1480   1.403       .  A
C1471      C1472   1.402       .  A
C1472      C1473   1.397       .  A
C1472      H1483   1.084       .  S
C1473      C1474   1.404       .  A
C1473      H1484   1.083       .  S
C1474      C1475   1.398       .  A
C1475      C1476   1.410       .  A
C1475      H1485   1.084       .  S
C1476      C1477   1.408       .  A
C1477      H1486   1.084       .  S
C1478      C1479   1.410       .  A
C1478      H1487   1.084       .  S
C1479      C1480   1.405       .  A
C1480      H1488   1.084       .  S
C1489      C1490   1.399       .  A
C1489      C1494   1.403       .  A
C1489      H1505   1.084       .  S
C1490      C1491   1.403       .  A
C1490      H1506   1.083       .  S
C1491      C1501   1.405       .  A
C1491      C1492   1.413       .  A
C1492      C1498   1.411       .  A
C1492      C1493   1.414       .  A
C1493      C1495   1.414   1_565  A
C1493      C1494   1.410       .  A
C1494      C1502   1.401   1_565  A
C1495      C1504   1.408       .  A
C1495      C1496   1.404       .  A
C1496      C1497   1.401       .  A
C1496      H1507   1.083       .  S
C1497      C1498   1.405   1_545  A
C1497      H1508   1.084       .  S
C1498      C1499   1.405       .  A
C1499      C1500   1.407       .  A
C1499      H1509   1.085       .  S
C1500      C1501   1.404       .  A
C1501      H1510   1.084       .  S
C1502      C1503   1.406       .  A
C1502      H1511   1.085       .  S
C1503      C1504   1.406       .  A
C1504      H1512   1.084       .  S
C1513      C1514   1.395       .  A
C1513      C1518   1.402   1_545  A
C1513      H1529   1.084       .  S
C1514      C1515   1.402       .  A
C1514      H1530   1.084       .  S
C1515      C1525   1.397       .  A
C1515      C1516   1.411       .  A
C1516      C1522   1.413       .  A
C1516      C1517   1.412   1_545  A
C1517      C1519   1.414       .  A
C1517      C1518   1.411       .  A
C1518      C1526   1.397       .  A
C1519      C1528   1.410       .  A
C1519      C1520   1.405       .  A
C1520      C1521   1.403       .  A
C1520      H1531   1.083       .  S
C1521      C1522   1.405   1_565  A
C1521      H1532   1.083       .  S
C1522      C1523   1.410       .  A
C1523      C1524   1.407       .  A
C1523      H1533   1.084       .  S
C1524      C1525   1.404       .  A
C1525      H1534   1.085       .  S
C1526      C1527   1.402       .  A
C1526      H1535   1.085       .  S
C1527      C1528   1.405       .  A
C1528      H1536   1.084       .  S
C1537      C1538   1.402       .  A
C1537      C1542   1.405       .  A
C1537      H1553   1.083       .  S
C1538      C1539   1.405       .  A
C1538      H1554   1.084       .  S
C1539      C1549   1.409       .  A
C1539      C1540   1.412       .  A
C1540      C1546   1.410       .  A
C1540      C1541   1.413       .  A
C1541      C1543   1.410       .  A
C1541      C1542   1.412       .  A
C1542      C1550   1.409       .  A
C1543      C1552   1.398       .  A
C1543      C1544   1.402       .  A
C1544      C1545   1.396       .  A
C1544      H1555   1.084       .  S
C1545      C1546   1.403       .  A
C1545      H1556   1.083       .  S
C1546      C1547   1.399       .  A
C1547      C1548   1.408       .  A
C1547      H1557   1.084       .  S
C1548      C1549   1.410       .  A
C1549      H1558   1.084       .  S
C1550      C1551   1.409       .  A
C1550      H1559   1.084       .  S
C1551      C1552   1.408       .  A
C1552      H1560   1.084       .  S
C1561      C1562   1.398       .  A
C1561      C1566   1.403       .  A
C1561      H1577   1.084       .  S
C1562      C1563   1.403       .  A
C1562      H1578   1.084       .  S
C1563      C1573   1.401       .  A
C1563      C1564   1.410       .  A
C1564      C1570   1.412       .  A
C1564      C1565   1.415       .  A
C1565      C1567   1.412       .  A
C1565      C1566   1.411       .  A
C1566      C1574   1.402       .  A
C1567      C1576   1.409       .  A
C1567      C1568   1.405       .  A
C1568      C1569   1.402       .  A
C1568      H1579   1.083       .  S
C1569      C1570   1.405       .  A
C1569      H1580   1.083       .  S
C1570      C1571   1.409       .  A
C1571      C1572   1.409       .  A
C1571      H1581   1.084       .  S
C1572      C1573   1.409       .  A
C1573      H1582   1.084       .  S
C1574      C1575   1.409       .  A
C1574      H1583   1.084       .  S
C1575      C1576   1.409       .  A
C1576      H1584   1.084       .  S
C1585      C1586   1.392       .  A
C1585      C1590   1.401       .  A
C1585      H1601   1.084       .  S
C1586      C1587   1.401       .  A
C1586      H1602   1.084       .  S
C1587      C1597   1.392       .  A
C1587      C1588   1.410       .  A
C1588      C1594   1.413       .  A
C1588      C1589   1.411       .  A
C1589      C1591   1.412   1_655  A
C1589      C1590   1.410       .  A
C1590      C1598   1.393   1_655  A
C1591      C1600   1.410       .  A
C1591      C1592   1.405       .  A
C1592      C1593   1.404       .  A
C1592      H1603   1.083       .  S
C1593      C1594   1.406   1_455  A
C1593      H1604   1.083       .  S
C1594      C1595   1.411       .  A
C1595      C1596   1.408       .  A
C1595      H1605   1.084       .  S
C1596      C1597   1.403       .  A
C1597      H1606   1.085       .  S
C1598      C1599   1.406       .  A
C1598      H1607   1.084       .  S
C1599      C1600   1.409       .  A
C1600      H1608   1.084       .  S
C1609      C1610   1.396       .  A
C1609      C1614   1.402       .  A
C1609      H1625   1.084       .  S
C1610      C1611   1.403   1_455  A
C1610      H1626   1.084       .  S
C1611      C1621   1.397       .  A
C1611      C1612   1.410       .  A
C1612      C1618   1.413       .  A
C1612      C1613   1.411   1_655  A
C1613      C1615   1.412       .  A
C1613      C1614   1.412       .  A
C1614      C1622   1.399       .  A
C1615      C1624   1.405       .  A
C1615      C1616   1.404   1_455  A
C1616      C1617   1.401       .  A
C1616      H1627   1.083       .  S
C1617      C1618   1.404       .  A
C1617      H1628   1.083       .  S
C1618      C1619   1.407       .  A
C1619      C1620   1.406       .  A
C1619      H1629   1.084       .  S
C1620      C1621   1.408       .  A
C1621      H1630   1.084       .  S
C1622      C1623   1.403       .  A
C1622      H1631   1.085       .  S
C1623      C1624   1.404       .  A
C1624      H1632   1.084       .  S
C1633      C1634   1.404       .  A
C1633      C1638   1.406       .  A
C1633      H1649   1.083       .  S
C1634      C1635   1.406       .  A
C1634      H1650   1.084       .  S
C1635      C1645   1.411       .  A
C1635      C1636   1.412       .  A
C1636      C1642   1.411       .  A
C1636      C1637   1.414       .  A
C1637      C1639   1.410       .  A
C1637      C1638   1.412       .  A
C1638      C1646   1.412       .  A
C1639      C1648   1.398       .  A
C1639      C1640   1.402       .  A
C1640      C1641   1.395       .  A
C1640      H1651   1.084       .  S
C1641      C1642   1.402       .  A
C1641      H1652   1.083       .  S
C1642      C1643   1.399       .  A
C1643      C1644   1.407       .  A
C1643      H1653   1.084       .  S
C1644      C1645   1.411       .  A
C1645      H1654   1.084       .  S
C1646      C1647   1.411       .  A
C1646      H1655   1.084       .  S
C1647      C1648   1.409       .  A
C1648      H1656   1.084       .  S
C1657      C1658   1.398       .  A
C1657      C1662   1.403       .  A
C1657      H1673   1.084       .  S
C1658      C1659   1.403       .  A
C1658      H1674   1.083       .  S
C1659      C1669   1.402       .  A
C1659      C1660   1.410       .  A
C1660      C1666   1.412       .  A
C1660      C1661   1.416       .  A
C1661      C1663   1.412       .  A
C1661      C1662   1.411       .  A
C1662      C1670   1.403       .  A
C1663      C1672   1.410       .  A
C1663      C1664   1.405       .  A
C1664      C1665   1.403       .  A
C1664      H1675   1.083       .  S
C1665      C1666   1.405       .  A
C1665      H1676   1.084       .  S
C1666      C1667   1.410       .  A
C1667      C1668   1.410       .  A
C1667      H1677   1.084       .  S
C1668      C1669   1.409       .  A
C1669      H1678   1.084       .  S
C1670      C1671   1.408       .  A
C1670      H1679   1.085       .  S
C1671      C1672   1.410       .  A
C1672      H1680   1.084       .  S
C1681      C1682   1.396       .  A
C1681      C1686   1.402       .  A
C1681      H1697   1.084       .  S
C1682      C1683   1.403       .  A
C1682      H1698   1.084       .  S
C1683      C1693   1.397       .  A
C1683      C1684   1.409       .  A
C1684      C1690   1.413       .  A
C1684      C1685   1.412       .  A
C1685      C1687   1.410       .  A
C1685      C1686   1.412       .  A
C1686      C1694   1.400       .  A
C1687      C1696   1.406       .  A
C1687      C1688   1.405       .  A
C1688      C1689   1.401       .  A
C1688      H1699   1.083       .  S
C1689      C1690   1.404       .  A
C1689      H1700   1.084       .  S
C1690      C1691   1.408       .  A
C1691      C1692   1.407       .  A
C1691      H1701   1.084       .  S
C1692      C1693   1.408       .  A
C1693      H1702   1.084       .  S
C1694      C1695   1.406       .  A
C1694      H1703   1.084       .  S
C1695      C1696   1.410       .  A
C1696      H1704   1.084       .  S
C1705      C1706   1.398       .  A
C1705      C1710   1.404       .  A
C1705      H1721   1.083       .  S
C1706      C1707   1.403       .  A
C1706      H1722   1.084       .  S
C1707      C1717   1.404       .  A
C1707      C1708   1.413       .  A
C1708      C1714   1.409       .  A
C1708      C1709   1.412       .  A
C1709      C1711   1.413       .  A
C1709      C1710   1.409       .  A
C1710      C1718   1.400       .  A
C1711      C1720   1.406       .  A
C1711      C1712   1.403       .  A
C1712      C1713   1.399       .  A
C1712      H1723   1.084       .  S
C1713      C1714   1.404       .  A
C1713      H1724   1.083       .  S
C1714      C1715   1.401       .  A
C1715      C1716   1.409       .  A
C1715      H1725   1.084       .  S
C1716      C1717   1.406       .  A
C1717      H1726   1.084       .  S
C1718      C1719   1.410       .  A
C1718      H1727   1.084       .  S
C1719      C1720   1.406       .  A
C1720      H1728   1.084       .  S
C1729      C1730   1.398       .  A
C1729      C1734   1.403       .  A
C1729      H1745   1.084       .  S
C1730      C1731   1.403       .  A
C1730      H1746   1.084       .  S
C1731      C1741   1.400       .  A
C1731      C1732   1.410       .  A
C1732      C1738   1.412       .  A
C1732      C1733   1.412       .  A
C1733      C1735   1.411       .  A
C1733      C1734   1.411       .  A
C1734      C1742   1.401       .  A
C1735      C1744   1.404       .  A
C1735      C1736   1.404       .  A
C1736      C1737   1.400       .  A
C1736      H1747   1.084       .  S
C1737      C1738   1.404       .  A
C1737      H1748   1.083       .  S
C1738      C1739   1.405       .  A
C1739      C1740   1.407       .  A
C1739      H1749   1.084       .  S
C1740      C1741   1.408       .  A
C1741      H1750   1.084       .  S
C1742      C1743   1.408       .  A
C1742      H1751   1.084       .  S
C1743      C1744   1.408       .  A
C1744      H1752   1.084       .  S
C1753      C1754   1.401       .  A
C1753      C1758   1.404       .  A
C1753      H1769   1.083       .  S
C1754      C1755   1.404       .  A
C1754      H1770   1.083       .  S
C1755      C1765   1.407       .  A
C1755      C1756   1.412       .  A
C1756      C1762   1.410       .  A
C1756      C1757   1.412       .  A
C1757      C1759   1.411       .  A
C1757      C1758   1.411       .  A
C1758      C1766   1.405       .  A
C1759      C1768   1.399       .  A
C1759      C1760   1.402       .  A
C1760      C1761   1.396       .  A
C1760      H1771   1.084       .  S
C1761      C1762   1.403       .  A
C1761      H1772   1.084       .  S
C1762      C1763   1.399       .  A
C1763      C1764   1.408       .  A
C1763      H1773   1.084       .  S
C1764      C1765   1.408       .  A
C1765      H1774   1.084       .  S
C1766      C1767   1.409       .  A
C1766      H1775   1.084       .  S
C1767      C1768   1.407       .  A
C1768      H1776   1.084       .  S
C1777      C1778   1.401       .  A
C1777      C1782   1.404       .  A
C1777      H1793   1.084       .  S
C1778      C1779   1.405       .  A
C1778      H1794   1.083       .  S
C1779      C1789   1.405       .  A
C1779      C1780   1.410       .  A
C1780      C1786   1.412       .  A
C1780      C1781   1.412       .  A
C1781      C1783   1.409       .  A
C1781      C1782   1.413       .  A
C1782      C1790   1.408       .  A
C1783      C1792   1.397       .  A
C1783      C1784   1.403       .  A
C1784      C1785   1.396       .  A
C1784      H1795   1.084       .  S
C1785      C1786   1.402       .  A
C1785      H1796   1.084       .  S
C1786      C1787   1.401       .  A
C1787      C1788   1.406       .  A
C1787      H1797   1.084       .  S
C1788      C1789   1.410       .  A
C1789      H1798   1.084       .  S
C1790      C1791   1.406       .  A
C1790      H1799   1.084       .  S
C1791      C1792   1.408       .  A
C1792      H1800   1.084       .  S
C1801      C1802   1.395       .  A
C1801      C1806   1.401       .  A
C1801      H1817   1.084       .  S
C1802      C1803   1.402       .  A
C1802      H1818   1.084       .  S
C1803      C1813   1.394       .  A
C1803      C1804   1.408       .  A
C1804      C1810   1.414       .  A
C1804      C1805   1.411       .  A
C1805      C1807   1.410       .  A
C1805      C1806   1.412       .  A
C1806      C1814   1.399       .  A
C1807      C1816   1.406       .  A
C1807      C1808   1.406       .  A
C1808      C1809   1.402       .  A
C1808      H1819   1.083       .  S
C1809      C1810   1.404       .  A
C1809      H1820   1.084       .  S
C1810      C1811   1.410       .  A
C1811      C1812   1.408       .  A
C1811      H1821   1.084       .  S
C1812      C1813   1.408       .  A
C1813      H1822   1.084       .  S
C1814      C1815   1.404       .  A
C1814      H1823   1.084       .  S
C1815      C1816   1.411       .  A
C1816      H1824   1.084       .  S
C1825      C1826   1.403       .  A
C1825      C1830   1.405       .  A
C1825      H1841   1.084       .  S
C1826      C1827   1.405   1_565  A
C1826      H1842   1.083       .  S
C1827      C1837   1.408       .  A
C1827      C1828   1.412       .  A
C1828      C1834   1.412       .  A
C1828      C1829   1.412   1_545  A
C1829      C1831   1.409       .  A
C1829      C1830   1.413       .  A
C1830      C1838   1.410       .  A
C1831      C1840   1.397       .  A
C1831      C1832   1.403   1_565  A
C1832      C1833   1.396       .  A
C1832      H1843   1.084       .  S
C1833      C1834   1.402       .  A
C1833      H1844   1.084       .  S
C1834      C1835   1.399       .  A
C1835      C1836   1.404       .  A
C1835      H1845   1.085       .  S
C1836      C1837   1.407       .  A
C1837      H1846   1.084       .  S
C1838      C1839   1.408       .  A
C1838      H1847   1.084       .  S
C1839      C1840   1.409       .  A
C1840      H1848   1.084       .  S
C1849      C1850   1.402   1_565  A
C1849      C1854   1.404       .  A
C1849      H1865   1.083   1_565  S
C1850      C1851   1.405       .  A
C1850      H1866   1.083       .  S
C1851      C1861   1.409       .  A
C1851      C1852   1.413   1_545  A
C1852      C1858   1.409       .  A
C1852      C1853   1.411       .  A
C1853      C1855   1.412       .  A
C1853      C1854   1.412       .  A
C1854      C1862   1.407       .  A
C1855      C1864   1.396       .  A
C1855      C1856   1.402       .  A
C1856      C1857   1.395       .  A
C1856      H1867   1.084       .  S
C1857      C1858   1.403       .  A
C1857      H1868   1.084       .  S
C1858      C1859   1.395   1_565  A
C1859      C1860   1.408       .  A
C1859      H1869   1.084       .  S
C1860      C1861   1.408       .  A
C1861      H1870   1.084       .  S
C1862      C1863   1.405       .  A
C1862      H1871   1.084       .  S
C1863      C1864   1.404       .  A
C1864      H1872   1.085       .  S
C1873      C1874   1.398       .  A
C1873      C1878   1.403       .  A
C1873      H1889   1.084       .  S
C1874      C1875   1.403       .  A
C1874      H1890   1.084       .  S
C1875      C1885   1.402       .  A
C1875      C1876   1.412       .  A
C1876      C1882   1.411       .  A
C1876      C1877   1.411       .  A
C1877      C1879   1.412       .  A
C1877      C1878   1.411       .  A
C1878      C1886   1.400       .  A
C1879      C1888   1.403       .  A
C1879      C1880   1.403       .  A
C1880      C1881   1.399       .  A
C1880      H1891   1.083       .  S
C1881      C1882   1.403       .  A
C1881      H1892   1.084       .  S
C1882      C1883   1.402       .  A
C1883      C1884   1.406       .  A
C1883      H1893   1.084       .  S
C1884      C1885   1.408       .  A
C1885      H1894   1.084       .  S
C1886      C1887   1.406       .  A
C1886      H1895   1.084       .  S
C1887      C1888   1.406       .  A
C1888      H1896   1.084       .  S
C1897      C1898   1.399       .  A
C1897      C1902   1.404       .  A
C1897      H1913   1.084       .  S
C1898      C1899   1.404       .  A
C1898      H1914   1.084       .  S
C1899      C1909   1.404       .  A
C1899      C1900   1.412       .  A
C1900      C1906   1.411       .  A
C1900      C1901   1.413       .  A
C1901      C1903   1.414       .  A
C1901      C1902   1.410       .  A
C1902      C1910   1.400       .  A
C1903      C1912   1.408       .  A
C1903      C1904   1.403       .  A
C1904      C1905   1.401       .  A
C1904      H1915   1.084       .  S
C1905      C1906   1.404       .  A
C1905      H1916   1.083       .  S
C1906      C1907   1.405       .  A
C1907      C1908   1.409       .  A
C1907      H1917   1.084       .  S
C1908      C1909   1.408       .  A
C1909      H1918   1.084       .  S
C1910      C1911   1.406       .  A
C1910      H1919   1.085       .  S
C1911      C1912   1.404       .  A
C1912      H1920   1.084       .  S
C1921      C1922   1.396       .  A
C1921      C1926   1.403       .  A
C1921      H1937   1.083       .  S
C1922      C1923   1.402       .  A
C1922      H1938   1.084       .  S
C1923      C1933   1.399       .  A
C1923      C1924   1.412       .  A
C1924      C1930   1.411       .  A
C1924      C1925   1.411       .  A
C1925      C1927   1.413       .  A
C1925      C1926   1.410       .  A
C1926      C1934   1.397       .  A
C1927      C1936   1.407       .  A
C1927      C1928   1.404       .  A
C1928      C1929   1.401       .  A
C1928      H1939   1.084       .  S
C1929      C1930   1.404       .  A
C1929      H1940   1.083       .  S
C1930      C1931   1.404       .  A
C1931      C1932   1.409       .  A
C1931      H1941   1.084       .  S
C1932      C1933   1.406       .  A
C1933      H1942   1.084       .  S
C1934      C1935   1.407       .  A
C1934      H1943   1.084       .  S
C1935      C1936   1.405       .  A
C1936      H1944   1.084       .  S
C1945      C1946   1.394       .  A
C1945      C1950   1.401       .  A
C1945      H1961   1.084       .  S
C1946      C1947   1.402       .  A
C1946      H1962   1.084       .  S
C1947      C1957   1.394       .  A
C1947      C1948   1.408       .  A
C1948      C1954   1.414       .  A
C1948      C1949   1.412       .  A
C1949      C1951   1.410       .  A
C1949      C1950   1.413       .  A
C1950      C1958   1.399       .  A
C1951      C1960   1.406       .  A
C1951      C1952   1.406       .  A
C1952      C1953   1.403       .  A
C1952      H1963   1.083       .  S
C1953      C1954   1.405       .  A
C1953      H1964   1.084       .  S
C1954      C1955   1.411       .  A
C1955      C1956   1.408       .  A
C1955      H1965   1.084       .  S
C1956      C1957   1.408       .  A
C1957      H1966   1.084       .  S
C1958      C1959   1.404       .  A
C1958      H1967   1.084       .  S
C1959      C1960   1.411       .  A
C1960      H1968   1.084       .  S
C1969      C1970   1.394       .  A
C1969      C1974   1.402   1_455  A
C1969      H1985   1.084       .  S
C1970      C1971   1.401       .  A
C1970      H1986   1.084       .  S
C1971      C1981   1.396       .  A
C1971      C1972   1.412       .  A
C1972      C1978   1.413   1_455  A
C1972      C1973   1.411   1_455  A
C1973      C1975   1.413       .  A
C1973      C1974   1.410       .  A
C1974      C1982   1.396       .  A
C1975      C1984   1.408       .  A
C1975      C1976   1.405       .  A
C1976      C1977   1.402       .  A
C1976      H1987   1.083       .  S
C1977      C1978   1.405       .  A
C1977      H1988   1.083       .  S
C1978      C1979   1.407   1_655  A
C1979      C1980   1.405       .  A
C1979      H1989   1.084       .  S
C1980      C1981   1.401       .  A
C1981      H1990   1.085       .  S
C1982      C1983   1.407       .  A
C1982      H1991   1.084       .  S
C1983      C1984   1.408       .  A
C1984      H1992   1.084       .  S
C1993      C1994   1.396       .  A
C1993      C1998   1.402       .  A
C1993      H2009   1.084       .  S
C1994      C1995   1.403       .  A
C1994      H2010   1.084       .  S
C1995      C2005   1.396   1_655  A
C1995      C1996   1.408       .  A
C1996      C2002   1.414   1_655  A
C1996      C1997   1.412       .  A
C1997      C1999   1.412       .  A
C1997      C1998   1.412       .  A
C1998      C2006   1.399       .  A
C1999      C2008   1.407       .  A
C1999      C2000   1.405       .  A
C2000      C2001   1.402   1_655  A
C2000      H2011   1.083       .  S
C2001      C2002   1.405       .  A
C2001      H2012   1.083       .  S
C2002      C2003   1.411       .  A
C2003      C2004   1.408       .  A
C2003      H2013   1.084       .  S
C2004      C2005   1.410       .  A
C2005      H2014   1.084   1_455  S
C2006      C2007   1.404       .  A
C2006      H2015   1.085       .  S
C2007      C2008   1.406       .  A
C2008      H2016   1.084       .  S
C2017      C2018   1.393       .  A
C2017      C2022   1.402       .  A
C2017      H2033   1.084       .  S
C2018      C2019   1.401       .  A
C2018      H2034   1.084       .  S
C2019      C2029   1.397       .  A
C2019      C2020   1.412       .  A
C2020      C2026   1.411       .  A
C2020      C2021   1.414       .  A
C2021      C2023   1.414       .  A
C2021      C2022   1.408       .  A
C2022      C2030   1.393       .  A
C2023      C2032   1.416       .  A
C2023      C2024   1.406       .  A
C2024      C2025   1.406       .  A
C2024      H2035   1.083       .  S
C2025      C2026   1.407       .  A
C2025      H2036   1.083       .  S
C2026      C2027   1.413       .  A
C2027      C2028   1.411       .  A
C2027      H2037   1.084       .  S
C2028      C2029   1.403       .  A
C2029      H2038   1.085       .  S
C2030      C2031   1.409       .  A
C2030      H2039   1.084       .  S
C2031      C2032   1.411       .  A
C2032      H2040   1.084       .  S
C2041      C2042   1.403       .  A
C2041      C2046   1.405       .  A
C2041      H2057   1.083       .  S
C2042      C2043   1.405       .  A
C2042      H2058   1.083       .  S
C2043      C2053   1.411       .  A
C2043      C2044   1.413       .  A
C2044      C2050   1.409       .  A
C2044      C2045   1.413       .  A
C2045      C2047   1.412       .  A
C2045      C2046   1.412       .  A
C2046      C2054   1.409       .  A
C2047      C2056   1.398       .  A
C2047      C2048   1.402       .  A
C2048      C2049   1.395       .  A
C2048      H2059   1.084       .  S
C2049      C2050   1.403       .  A
C2049      H2060   1.084       .  S
C2050      C2051   1.396       .  A
C2051      C2052   1.408       .  A
C2051      H2061   1.085       .  S
C2052      C2053   1.408       .  A
C2053      H2062   1.084       .  S
C2054      C2055   1.407       .  A
C2054      H2063   1.084       .  S
C2055      C2056   1.403       .  A
C2056      H2064   1.085       .  S
C2065      C2066   1.397       .  A
C2065      C2070   1.402       .  A
C2065      H2081   1.084       .  S
C2066      C2067   1.403       .  A
C2066      H2082   1.083       .  S
C2067      C2077   1.400       .  A
C2067      C2068   1.410       .  A
C2068      C2074   1.413       .  A
C2068      C2069   1.413       .  A
C2069      C2071   1.411       .  A
C2069      C2070   1.412       .  A
C2070      C2078   1.401       .  A
C2071      C2080   1.406       .  A
C2071      C2072   1.405       .  A
C2072      C2073   1.402       .  A
C2072      H2083   1.083       .  S
C2073      C2074   1.404       .  A
C2073      H2084   1.084       .  S
C2074      C2075   1.408       .  A
C2075      C2076   1.408       .  A
C2075      H2085   1.084       .  S
C2076      C2077   1.408       .  A
C2077      H2086   1.084       .  S
C2078      C2079   1.405       .  A
C2078      H2087   1.085       .  S
C2079      C2080   1.408       .  A
C2080      H2088   1.084       .  S
C2089      C2090   1.395       .  A
C2089      C2094   1.402       .  A
C2089      H2105   1.084       .  S
C2090      C2091   1.402       .  A
C2090      H2106   1.083       .  S
C2091      C2101   1.398       .  A
C2091      C2092   1.410       .  A
C2092      C2098   1.412       .  A
C2092      C2093   1.412       .  A
C2093      C2095   1.412       .  A
C2093      C2094   1.411       .  A
C2094      C2102   1.398       .  A
C2095      C2104   1.408       .  A
C2095      C2096   1.405       .  A
C2096      C2097   1.402       .  A
C2096      H2107   1.083       .  S
C2097      C2098   1.405       .  A
C2097      H2108   1.084       .  S
C2098      C2099   1.409       .  A
C2099      C2100   1.409       .  A
C2099      H2109   1.084       .  S
C2100      C2101   1.406       .  A
C2101      H2110   1.084       .  S
C2102      C2103   1.407       .  A
C2102      H2111   1.084       .  S
C2103      C2104   1.409       .  A
C2104      H2112   1.084       .  S
C2113      C2114   1.403       .  A
C2113      C2118   1.405       .  A
C2113      H2129   1.083       .  S
C2114      C2115   1.405       .  A
C2114      H2130   1.083       .  S
C2115      C2125   1.409       .  A
C2115      C2116   1.412       .  A
C2116      C2122   1.411       .  A
C2116      C2117   1.412       .  A
C2117      C2119   1.409       .  A
C2117      C2118   1.413       .  A
C2118      C2126   1.411       .  A
C2119      C2128   1.395       .  A
C2119      C2120   1.403       .  A
C2120      C2121   1.395       .  A
C2120      H2131   1.084       .  S
C2121      C2122   1.402       .  A
C2121      H2132   1.084       .  S
C2122      C2123   1.397       .  A
C2123      C2124   1.405       .  A
C2123      H2133   1.085       .  S
C2124      C2125   1.407       .  A
C2125      H2134   1.084       .  S
C2126      C2127   1.408       .  A
C2126      H2135   1.084       .  S
C2127      C2128   1.409       .  A
C2128      H2136   1.084       .  S
C2137      C2138   1.401       .  A
C2137      C2142   1.404       .  A
C2137      H2153   1.083       .  S
C2138      C2139   1.404       .  A
C2138      H2154   1.083       .  S
C2139      C2149   1.407       .  A
C2139      C2140   1.412       .  A
C2140      C2146   1.410       .  A
C2140      C2141   1.411       .  A
C2141      C2143   1.412       .  A
C2141      C2142   1.412       .  A
C2142      C2150   1.406       .  A
C2143      C2152   1.398       .  A
C2143      C2144   1.402       .  A
C2144      C2145   1.396       .  A
C2144      H2155   1.084       .  S
C2145      C2146   1.403       .  A
C2145      H2156   1.084       .  S
C2146      C2147   1.398       .  A
C2147      C2148   1.408       .  A
C2147      H2157   1.084       .  S
C2148      C2149   1.407       .  A
C2149      H2158   1.084       .  S
C2150      C2151   1.405       .  A
C2150      H2159   1.084       .  S
C2151      C2152   1.404       .  A
C2152      H2160   1.085       .  S
C2161      C2162   1.401       .  A
C2161      C2166   1.404       .  A
C2161      H2177   1.084       .  S
C2162      C2163   1.405       .  A
C2162      H2178   1.083       .  S
C2163      C2173   1.404       .  A
C2163      C2164   1.410       .  A
C2164      C2170   1.412       .  A
C2164      C2165   1.410       .  A
C2165      C2167   1.408       .  A
C2165      C2166   1.414       .  A
C2166      C2174   1.408       .  A
C2167      C2176   1.395       .  A
C2167      C2168   1.403       .  A
C2168      C2169   1.395       .  A
C2168      H2179   1.084       .  S
C2169      C2170   1.402       .  A
C2169      H2180   1.084       .  S
C2170      C2171   1.398       .  A
C2171      C2172   1.405       .  A
C2171      H2181   1.084       .  S
C2172      C2173   1.409       .  A
C2173      H2182   1.084       .  S
C2174      C2175   1.406       .  A
C2174      H2183   1.084       .  S
C2175      C2176   1.409       .  A
C2176      H2184   1.084       .  S
C2185      C2186   1.403       .  A
C2185      C2190   1.405       .  A
C2185      H2201   1.084       .  S
C2186      C2187   1.406       .  A
C2186      H2202   1.083       .  S
C2187      C2197   1.407       .  A
C2187      C2188   1.410       .  A
C2188      C2194   1.412       .  A
C2188      C2189   1.411       .  A
C2189      C2191   1.408       .  A
C2189      C2190   1.414       .  A
C2190      C2198   1.411       .  A
C2191      C2200   1.393       .  A
C2191      C2192   1.402       .  A
C2192      C2193   1.393       .  A
C2192      H2203   1.084       .  S
C2193      C2194   1.401       .  A
C2193      H2204   1.084       .  S
C2194      C2195   1.396       .  A
C2195      C2196   1.404       .  A
C2195      H2205   1.084       .  S
C2196      C2197   1.411       .  A
C2197      H2206   1.084       .  S
C2198      C2199   1.408       .  A
C2198      H2207   1.084       .  S
C2199      C2200   1.407       .  A
C2200      H2208   1.084       .  S
C2209      C2210   1.399       .  A
C2209      C2214   1.404       .  A
C2209      H2225   1.083       .  S
C2210      C2211   1.404       .  A
C2210      H2226   1.084       .  S
C2211      C2221   1.403       .  A
C2211      C2212   1.410       .  A
C2212      C2218   1.412       .  A
C2212      C2213   1.414       .  A
C2213      C2215   1.411       .  A
C2213      C2214   1.412       .  A
C2214      C2222   1.405       .  A
C2215      C2224   1.405       .  A
C2215      C2216   1.404       .  A
C2216      C2217   1.401       .  A
C2216      H2227   1.084       .  S
C2217      C2218   1.404       .  A
C2217      H2228   1.083       .  S
C2218      C2219   1.407       .  A
C2219      C2220   1.408       .  A
C2219      H2229   1.084       .  S
C2220      C2221   1.409       .  A
C2221      H2230   1.084       .  S
C2222      C2223   1.409       .  A
C2222      H2231   1.084       .  S
C2223      C2224   1.410       .  A
C2224      H2232   1.084       .  S
C2233      C2234   1.395       .  A
C2233      C2238   1.402       .  A
C2233      H2249   1.084       .  S
C2234      C2235   1.402       .  A
C2234      H2250   1.083       .  S
C2235      C2245   1.398       .  A
C2235      C2236   1.411       .  A
C2236      C2242   1.412       .  A
C2236      C2237   1.412       .  A
C2237      C2239   1.412       .  A
C2237      C2238   1.411       .  A
C2238      C2246   1.398       .  A
C2239      C2248   1.408       .  A
C2239      C2240   1.405       .  A
C2240      C2241   1.402       .  A
C2240      H2251   1.083       .  S
C2241      C2242   1.405       .  A
C2241      H2252   1.084       .  S
C2242      C2243   1.407       .  A
C2243      C2244   1.410       .  A
C2243      H2253   1.084       .  S
C2244      C2245   1.406       .  A
C2245      H2254   1.084       .  S
C2246      C2247   1.406       .  A
C2246      H2255   1.085       .  S
C2247      C2248   1.409       .  A
C2248      H2256   1.084       .  S
