geometry optimzed in LAMMPS
_audit_creation_date              2020-12-01 
_audit_creation_method            'lammps2cif' 
_symmetry_space_group_name_H-M    'P1' 
_symmetry_Int_Tables_number       1 
_symmetry_cell_setting            triclinic 
loop_ 
_symmetry_equiv_pos_as_xyz 
  x,y,z 
_cell_length_a                    30.30751737 
_cell_length_b                    30.42855734679198 
_cell_length_c                    31.041455305003492 
_cell_angle_alpha                 92.0738237367951 
_cell_angle_beta                  89.43397761338059 
_cell_angle_gamma                 119.84643628567308 
loop_ 
_atom_site_label 
_atom_site_type_symbol 
_atom_site_fract_x 
_atom_site_fract_y 
_atom_site_fract_z 
_atom_site_charge 
O1          O  0.79603529  0.21309366  0.29470015    -0.85300
O2          O  0.87070877  0.28907122  0.25049560    -0.82400
C3          C  0.88842719  0.32516296  0.27874081     0.98100
O4          O  0.91643072  0.32575076  0.30883740    -0.82400
O5          O  0.95798315  0.29027050  0.36864527    -0.85100
C6          C  0.92431801  0.27200516  0.39755971     1.02600
O7          O  0.88163148  0.23428608  0.38814152    -0.77800
O8          O  0.79851776  0.16171344  0.34123862    -0.78000
C9          C  0.77553413  0.18217354  0.32413528     1.02600
O10         O  0.81773082  0.13862529  0.25502920    -0.85300
O11         O  0.90003987  0.21644284  0.21724059    -0.82400
C12         C  0.93949776  0.25739238  0.20936952     0.98100
O13         O  0.95804126  0.29232748  0.23855037    -0.82400
O14         O  0.98627780  0.24611239  0.29813654    -0.85000
C15         C  0.98119909  0.21288273  0.32397660     1.02600
O16         O  0.94503074  0.19573974  0.35089906    -0.77900
O17         O  0.86423828  0.12793843  0.30232786    -0.78000
C18         C  0.83281809  0.11084147  0.27155711     1.02600
Cr19       Cr  0.84943253  0.21526892  0.25757171     1.93700
Cr20       Cr  0.95030969  0.28458748  0.30356531     1.93200
Cr21       Cr  0.87360346  0.18347671  0.34273702     1.39100
O22         O  0.89076103  0.22758845  0.30159628    -1.23100
O23         O  0.75052775  0.56438266  0.20354547    -0.85300
O24         O  0.67210677  0.54746366  0.15148394    -0.82400
C25         C  0.63593087  0.53397616  0.17806900     0.98100
O26         O  0.63444524  0.56690403  0.20314281    -0.82400
O27         O  0.66884371  0.65333703  0.25625256    -0.85100
C28         C  0.69036763  0.64454572  0.28692930     1.02600
O29         O  0.72773490  0.63853925  0.27955129    -0.77800
O30         O  0.80511074  0.63074023  0.24185790    -0.78000
C31         C  0.78374005  0.58356417  0.23280703     1.02600
O32         O  0.82160166  0.65304079  0.15688657    -0.85300
O33         O  0.73876110  0.63963409  0.10841309    -0.82400
C34         C  0.69610735  0.63448663  0.09874370     0.98100
O35         O  0.66383913  0.62673654  0.12798337    -0.82400
O36         O  0.70802700  0.71437642  0.18109477    -0.85000
C37         C  0.73862410  0.74700384  0.20834558     1.02600
O38         O  0.75805755  0.73332613  0.23742572    -0.77900
O39         O  0.82645270  0.71837340  0.19303051    -0.78000
C40         C  0.84654128  0.69965487  0.16872210     1.02600
Cr41       Cr  0.74500408  0.60408921  0.15756489     1.93700
Cr42       Cr  0.67291517  0.64041217  0.19218311     1.93200
Cr43       Cr  0.77599522  0.67751991  0.23516079     1.39100
O44         O  0.73145519  0.64093799  0.19463290    -1.23100
O45         O  0.38436803  0.08232873  0.31224185    -0.85300
O46         O  0.38222310  0.15071599  0.26005166    -0.82400
C47         C  0.37306287  0.16897768  0.22806031     0.98100
O48         O  0.33071943  0.14365779  0.20831439    -0.82400
O49         O  0.33587772  0.06417262  0.16766420    -0.85100
C50         C  0.33249950  0.02178202  0.15934376     1.02600
O51         O  0.31720147  0.98879403  0.18818544    -0.77800
O52         O  0.38390615  0.03349534  0.25833279    -0.78000
C53         C  0.40692728  0.06411390  0.28954558     1.02600
O54         O  0.27893140  0.04788268  0.33262271    -0.85300
O55         O  0.28033217  0.12273121  0.28656399    -0.82400
C56         C  0.23705363  0.10001347  0.26827825     0.98100
O57         O  0.22919695  0.06988979  0.23674665    -0.82400
O58         O  0.23247766  0.99475474  0.18969406    -0.85000
C59         C  0.21131866  0.95680649  0.21346185     1.02600
O60         O  0.23359078  0.95535291  0.24720249    -0.77900
O61         O  0.30137495  0.99122801  0.31827567    -0.78000
C62         C  0.28514176  0.01258746  0.34488614     1.02600
Cr63       Cr  0.32969640  0.09760961  0.29457438     1.93700
Cr64       Cr  0.28400723  0.06736311  0.20405584     1.93200
Cr65       Cr  0.30885349  0.99626650  0.25289782     1.39100
O66         O  0.30761814  0.05378138  0.25041463    -1.23100
O67         O  0.56889786  0.73873231  0.69790160    -0.85300
O68         O  0.55993733  0.65995005  0.74193358    -0.82400
C69         C  0.54400717  0.62524336  0.71253370     0.98100
O70         O  0.57368398  0.62616191  0.68334987    -0.82400
O71         O  0.65599621  0.66471938  0.62791699    -0.85100
C72         C  0.64340278  0.68633058  0.60022069     1.02600
O73         O  0.63969203  0.72420686  0.61165980    -0.77800
O74         O  0.63047611  0.79602289  0.65974336    -0.78000
C75         C  0.58455480  0.77389789  0.67194860     1.02600
O76         O  0.66099570  0.81009715  0.74416229    -0.85300
O77         O  0.65688719  0.72770566  0.78242411    -0.82400
C78         C  0.65336526  0.68555459  0.78859826     0.98100
O79         O  0.64128813  0.65333062  0.75732688    -0.82400
O80         O  0.72240020  0.70124155  0.70268713    -0.85000
C81         C  0.75339331  0.73527082  0.67859595     1.02600
O82         O  0.73772727  0.75481987  0.65147862    -0.77900
O83         O  0.72427292  0.82018883  0.70309354    -0.78000
C84         C  0.70628497  0.83727615  0.73118584     1.02600
Cr85       Cr  0.61431296  0.73352073  0.73877668     1.93700
Cr86       Cr  0.64833125  0.66527578  0.69295121     1.93200
Cr87       Cr  0.68055630  0.77018019  0.65901441     1.39100
O88         O  0.64791057  0.72315379  0.69694698    -1.23100
O89         O  0.28561619  0.86004750  0.69523823    -0.85300
O90         O  0.21305900  0.79536087  0.74950404    -0.82400
C91         C  0.18377851  0.77891045  0.78119012     0.98100
O92         O  0.16852812  0.80677364  0.79981888    -0.82400
O93         O  0.25342204  0.88630938  0.83916565    -0.85100
C94         C  0.29431000  0.92728482  0.84567326     1.02600
O95         O  0.31243917  0.95895877  0.81581815    -0.77800
O96         O  0.33338877  0.90909030  0.74886885    -0.78000
C97         C  0.32595027  0.87818505  0.71788051     1.02600
O98         O  0.21764887  0.89609777  0.67146624    -0.85300
O99         O  0.14168525  0.82476625  0.72026926    -0.82400
C100        C  0.12141413  0.84853785  0.73781873     0.98100
O101        O  0.14483858  0.88131996  0.76730533    -0.82400
O102        O  0.22390062  0.95815148  0.81188799    -0.85000
C103        C  0.24157116  0.99364195  0.78524652     1.02600
O104        O  0.26663309  0.99198455  0.75322271    -0.77900
O105        O  0.29727850  0.95143158  0.68589966    -0.78000
C106        C  0.25935553  0.93269173  0.66020561     1.02600
Cr107      Cr  0.21605305  0.84746226  0.71229214     1.93700
Cr108      Cr  0.20049152  0.88369195  0.80118020     1.93200
Cr109      Cr  0.29818711  0.94885127  0.75128445     1.39100
O110        O  0.23820418  0.89327614  0.75497920    -1.23100
O111        O  0.16466181  0.38688777  0.79042259    -0.85300
O112        O  0.10131801  0.39782494  0.84742297    -0.82400
C113        C  0.07706271  0.41183080  0.82349811     0.98100
O114        O  0.04381307  0.38028461  0.79749498    -0.82400
O115        O  0.99390442  0.29860832  0.74005832    -0.85100
C116        C  0.02261561  0.30805968  0.70755840     1.02600
O117        O  0.06612488  0.31298458  0.71141328    -0.77800
O118        O  0.15391299  0.32360168  0.74739166    -0.78000
C119        C  0.17962487  0.36996897  0.75948583     1.02600
O120        O  0.14992108  0.29625948  0.83021609    -0.85300
O121        O  0.07843003  0.30184960  0.88334829    -0.82400
C122        C  0.03868984  0.30194297  0.89543717     0.98100
O123        O  0.01448035  0.31357140  0.86927113    -0.82400
O124        O  0.97385684  0.23220237  0.81068509    -0.85000
C125        C  0.97202450  0.20213551  0.78083810     1.02600
O126        O  0.00575330  0.21764406  0.75187746    -0.77900
O127        O  0.09038600  0.23190400  0.79304131    -0.78000
C128        C  0.12929367  0.25033431  0.81662070     1.02600
Cr129      Cr  0.11971100  0.34292620  0.83527976     1.93700
Cr130      Cr  0.01088723  0.30642578  0.80398983     1.93200
Cr131      Cr  0.07851432  0.27427253  0.75420990     1.39100
O132        O  0.06971967  0.30793807  0.79777748    -1.23100
C133        C  0.16626417  0.72568591  0.79394158    -0.12000
C134        C  0.13738255  0.70342884  0.83126182     0.03500
C135        C  0.12190936  0.65264530  0.83988545    -0.12500
C136        C  0.13483591  0.62336572  0.81218719     0.18400
C137        C  0.16332833  0.64525357  0.77522082    -0.09500
C138        C  0.17875560  0.69552707  0.76651750    -0.02500
H139        H  0.09977915  0.63592107  0.86841693     0.04900
C140        C  0.11768957  0.56963380  0.82106918     0.20400
H141        H  0.20040103  0.71076942  0.73749839     0.10100
C142        C  0.06923737  0.53188801  0.80716876    -0.15900
C143        C  0.05424143  0.48036538  0.80928112     0.03100
C144        C  0.08848001  0.46562244  0.82535759    -0.11200
C145        C  0.13615362  0.50381940  0.84126051    -0.01200
C146        C  0.15082635  0.55527762  0.83915685    -0.06400
H147        H  0.04335514  0.54264954  0.79345427     0.06100
H148        H  0.16304044  0.49381867  0.85398035     0.09500
Br149      Br  0.18126657  0.60745164  0.73493090    -0.06100
Br150      Br  0.11828586  0.73962304  0.87222506    -0.03000
Br151      Br  0.98614528  0.43284154  0.79011757    -0.00200
Br152      Br  0.21719542  0.60498468  0.85994557    -0.04600
C153        C  0.23409622  0.03794557  0.79270198    -0.12000
C154        C  0.22920957  0.06471180  0.75839641     0.03500
C155        C  0.21910868  0.10428413  0.76715774    -0.12500
C156        C  0.21422179  0.11841002  0.80962339     0.18400
C157        C  0.22102966  0.09323252  0.84385643    -0.09500
C158        C  0.23059893  0.05327448  0.83526502    -0.02500
H159        H  0.21318219  0.12299709  0.74058675     0.04900
C160        C  0.19568396  0.15479565  0.81713780     0.20400
H161        H  0.23516904  0.03396412  0.86208323     0.10100
C162        C  0.14503255  0.13572678  0.82980903    -0.15900
C163        C  0.12340545  0.16700004  0.83212956     0.03100
C164        C  0.15312952  0.21893097  0.82334693    -0.11200
C165        C  0.20452144  0.23849194  0.81239250    -0.01200
C166        C  0.22551841  0.20655505  0.80829634    -0.06400
H167        H  0.12172044  0.09608462  0.83584444     0.06100
H168        H  0.22717474  0.27757033  0.80405744     0.09500
Br169      Br  0.21758636  0.11228650  0.90281367    -0.06100
Br170      Br  0.23174046  0.04707427  0.69880614    -0.03000
Br171      Br  0.05225740  0.13575091  0.84526895    -0.00200
Br172      Br  0.29402946  0.23467372  0.78816008    -0.04600
C173        C  0.93026655  0.14853744  0.77866499    -0.12000
C174        C  0.88128202  0.13275380  0.79571080     0.03500
C175        C  0.84309368  0.08176845  0.79124860    -0.12500
C176        C  0.85268846  0.04592476  0.77020110     0.18400
C177        C  0.90131275  0.06135761  0.75347797    -0.09500
C178        C  0.93947581  0.11213373  0.75774226    -0.02500
H179        H  0.80539711  0.07013648  0.80358212     0.04900
C180        C  0.81095426  0.99315077  0.76339827     0.20400
H181        H  0.97668911  0.12316503  0.74457185     0.10100
C182        C  0.78462113  0.97921259  0.72401912    -0.15900
C183        C  0.74863777  0.92871700  0.71422957     0.03100
C184        C  0.73746668  0.89116464  0.74451755    -0.11200
C185        C  0.76274094  0.90532244  0.78456131    -0.01200
C186        C  0.79956997  0.95603009  0.79405323    -0.06400
H187        H  0.79353960  0.00750740  0.70012943     0.06100
H188        H  0.75569160  0.87666522  0.80757674     0.09500
Br189      Br  0.91707625  0.01425100  0.72429180    -0.06100
Br190      Br  0.86260157  0.17882436  0.82282760    -0.03000
Br191      Br  0.71790352  0.91272425  0.65791113    -0.00200
Br192      Br  0.83593205  0.97280286  0.84781486    -0.04600
C193        C  0.49071496  0.58316470  0.71326654    -0.12000
C194        C  0.46779369  0.56014655  0.75213295     0.03500
C195        C  0.41620518  0.52355459  0.75267869    -0.12500
C196        C  0.38661158  0.50867422  0.71491101     0.18400
C197        C  0.40965636  0.53001925  0.67567911    -0.09500
C198        C  0.46150132  0.56681847  0.67502102    -0.02500
H199        H  0.39894259  0.50652679  0.78286611     0.04900
C200        C  0.33169639  0.47135961  0.71808574     0.20400
H201        H  0.47869553  0.58362436  0.64477400     0.10100
C202        C  0.29702086  0.48894577  0.72327728    -0.15900
C203        C  0.24637205  0.45579014  0.73431534     0.03100
C204        C  0.22967753  0.40401934  0.74019529    -0.11200
C205        C  0.26374687  0.38599346  0.73227360    -0.01200
C206        C  0.31452128  0.41935824  0.72164512    -0.06400
H207        H  0.30981768  0.52864510  0.72047811     0.06100
H208        H  0.25175280  0.34661256  0.73675631     0.09500
Br209      Br  0.37167942  0.50980653  0.62261866    -0.06100
Br210      Br  0.50574213  0.57479864  0.80495771    -0.03000
Br211      Br  0.20181764  0.48348852  0.74116896    -0.00200
Br212      Br  0.36000435  0.39295627  0.71449790    -0.04600
C213        C  0.36544588  0.86500684  0.70616904    -0.12000
C214        C  0.39709743  0.86151577  0.73739238     0.03500
C215        C  0.43337844  0.84826979  0.72445847    -0.12500
C216        C  0.43973416  0.83958139  0.68077735     0.18400
C217        C  0.40907939  0.84397713  0.64957559    -0.09500
C218        C  0.37191686  0.85604700  0.66240331    -0.02500
H219        H  0.45690333  0.84470911  0.74864733     0.04900
C220        C  0.47812302  0.82514032  0.66886540     0.20400
H221        H  0.34867060  0.85952153  0.63790515     0.10100
C222        C  0.46215331  0.77437243  0.65760465    -0.15900
C223        C  0.49748675  0.75771889  0.65369759     0.03100
C224        C  0.54965671  0.79226489  0.66099345    -0.11200
C225        C  0.56584854  0.84381116  0.66847897    -0.01200
C226        C  0.53042075  0.86032353  0.67283165    -0.06400
H227        H  0.42192159  0.74715778  0.65412853     0.06100
H228        H  0.60566731  0.87061376  0.67481759     0.09500
Br229      Br  0.41845732  0.83611588  0.58918182    -0.06100
Br230      Br  0.39176877  0.87243689  0.79814244    -0.03000
Br231      Br  0.47248817  0.68693320  0.64086657    -0.00200
Br232      Br  0.55467817  0.93051731  0.68725322    -0.04600
C233        C  0.06906889  0.83664768  0.72589236    -0.12000
C234        C  0.04384701  0.80882614  0.68776130     0.03500
C235        C  0.99354118  0.79644941  0.67983113    -0.12500
C236        C  0.96758687  0.81186418  0.70865530     0.18400
C237        C  0.99293534  0.84107160  0.74587099    -0.09500
C238        C  0.04312425  0.85325063  0.75411787    -0.02500
H239        H  0.97425201  0.77422313  0.65097595     0.04900
C240        C  0.91301923  0.79335471  0.70059165     0.20400
H241        H  0.06142562  0.87486457  0.78344292     0.10100
C242        C  0.87874361  0.74130953  0.70325298    -0.15900
C243        C  0.82695829  0.72126760  0.69458731     0.03100
C244        C  0.80844032  0.75372459  0.68332475    -0.11200
C245        C  0.84306012  0.80576781  0.67968021    -0.01200
C246        C  0.89502912  0.82567706  0.68800502    -0.06400
H247        H  0.89254575  0.71598647  0.71183326     0.06100
H248        H  0.82953216  0.83128032  0.67105945     0.09500
Br249      Br  0.96001773  0.86300084  0.78754835    -0.06100
Br250      Br  0.07535371  0.78750223  0.64421231    -0.03000
Br251      Br  0.78420895  0.64898384  0.69606560    -0.00200
Br252      Br  0.94004707  0.89669808  0.68043982    -0.04600
C253        C  0.26454523  0.94967498  0.61534698    -0.12000
C254        C  0.22418824  0.95064195  0.59376426     0.03500
C255        C  0.22776853  0.96023694  0.54974022    -0.12500
C256        C  0.27060340  0.96801909  0.52622429     0.18400
C257        C  0.31151114  0.96847122  0.54776851    -0.09500
C258        C  0.30838244  0.95959715  0.59202056    -0.02500
H259        H  0.19664559  0.96099008  0.53358752     0.04900
C260        C  0.27264523  0.97787363  0.47966248     0.20400
H261        H  0.33951296  0.95853515  0.60785435     0.10100
C262        C  0.28224944  0.02555061  0.46741544    -0.15900
C263        C  0.28566419  0.03731642  0.42396938     0.03100
C264        C  0.27842807  0.00027308  0.39130007    -0.11200
C265        C  0.26817177  0.95217351  0.40384091    -0.01200
C266        C  0.26509488  0.94078780  0.44756702    -0.06400
H267        H  0.28835235  0.05430302  0.49199191     0.06100
H268        H  0.26272612  0.92335707  0.37957869     0.09500
Br269      Br  0.37212680  0.98081648  0.51786616    -0.06100
Br270      Br  0.16339141  0.93979669  0.62260490    -0.03000
Br271      Br  0.30468034  0.10633917  0.41281339    -0.00200
Br272      Br  0.25027308  0.87413171  0.46210728    -0.04600
C273        C  0.33759120  0.00876331  0.11365572    -0.12000
C274        C  0.36149874  0.98100240  0.10004963     0.03500
C275        C  0.36375088  0.97040480  0.05576106    -0.12500
C276        C  0.34002239  0.98467897  0.02480787     0.18400
C277        C  0.31261542  0.00854455  0.03906774    -0.09500
C278        C  0.31356076  0.02225332  0.08253657    -0.02500
H279        H  0.38308995  0.95003124  0.04551662     0.04900
C280        C  0.33965591  0.97068467  0.97828357     0.20400
H281        H  0.29249003  0.04101238  0.09246309     0.10100
C282        C  0.31548625  0.91930743  0.96528033    -0.15900
C283        C  0.30408050  0.90410891  0.92172003     0.03100
C284        C  0.31686186  0.94086344  0.88999624    -0.11200
C285        C  0.34586976  0.99240633  0.90280016    -0.01200
C286        C  0.35744280  0.00744105  0.94635782    -0.06400
H287        H  0.30275696  0.89067449  0.98937641     0.06100
H288        H  0.35696957  0.02140727  0.87924067     0.09500
Br289      Br  0.26792570  0.01766863  0.00155793    -0.06100
Br290      Br  0.39079185  0.95613052  0.14008289    -0.03000
Br291      Br  0.26971917  0.83245411  0.90837329    -0.00200
Br292      Br  0.39534269  0.07878446  0.96079038    -0.04600
C293        C  0.68297470  0.63379388  0.05268129    -0.12000
C294        C  0.64093088  0.63827938  0.03905025     0.03500
C295        C  0.63173988  0.63852147  0.99498770    -0.12500
C296        C  0.66313391  0.63369083  0.96401874     0.18400
C297        C  0.70355055  0.62716229  0.97728839    -0.09500
C298        C  0.71316213  0.62723183  0.02114926    -0.02500
H299        H  0.60104174  0.64440734  0.98477797     0.04900
C300        C  0.65927718  0.64505612  0.91898555     0.20400
H301        H  0.74498282  0.62273161  0.03050021     0.10100
C302        C  0.67998596  0.69592189  0.90914354    -0.15900
C303        C  0.68011474  0.71014553  0.86699737     0.03100
C304        C  0.65874821  0.67261280  0.83320357    -0.11200
C305        C  0.63825429  0.62132075  0.84334553    -0.01200
C306        C  0.63813049  0.60738824  0.88592385    -0.06400
H307        H  0.69680724  0.72499346  0.93461975     0.06100
H308        H  0.62107181  0.59178956  0.81833361     0.09500
Br309      Br  0.74861622  0.62131956  0.93659216    -0.06100
Br310      Br  0.59607295  0.64724893  0.07796953    -0.03000
Br311      Br  0.71162489  0.78189654  0.85917846    -0.00200
Br312      Br  0.60767938  0.53682528  0.89783746    -0.04600
C313        C  0.67543045  0.64523755  0.33206753    -0.12000
C314        C  0.71306100  0.66661539  0.36489189     0.03500
C315        C  0.69883520  0.66510900  0.40769454    -0.12500
C316        C  0.64763748  0.64278719  0.41904884     0.18400
C317        C  0.60985184  0.62289319  0.38649964    -0.09500
C318        C  0.62395327  0.62418619  0.34315854    -0.02500
H319        H  0.72812847  0.68226219  0.43246942     0.04900
C320        C  0.63625989  0.64523989  0.46506412     0.20400
H321        H  0.59479130  0.60802899  0.31828529     0.10100
C322        C  0.62131231  0.68006358  0.47868727    -0.15900
C323        C  0.62184257  0.69311918  0.52233982     0.03100
C324        C  0.63655231  0.66986533  0.55382983    -0.11200
C325        C  0.64901187  0.63288291  0.53985565    -0.01200
C326        C  0.64967406  0.62109548  0.49595236    -0.06400
H327        H  0.61232196  0.69972221  0.45491946     0.06100
H328        H  0.66071295  0.61472825  0.56292644     0.09500
Br329      Br  0.53900029  0.59278305  0.39989742    -0.06100
Br330      Br  0.78501426  0.70163152  0.35386185    -0.03000
Br331      Br  0.60537904  0.74576218  0.53467710    -0.00200
Br332      Br  0.67218417  0.57409633  0.47932129    -0.04600
C333        C  0.41135129  0.22122594  0.21539514    -0.12000
C334        C  0.46172317  0.24683217  0.23254609     0.03500
C335        C  0.49509266  0.29721251  0.22264440    -0.12500
C336        C  0.48013172  0.32334529  0.19572061     0.18400
C337        C  0.43104387  0.29794000  0.17726621    -0.09500
C338        C  0.39711742  0.24733950  0.18710683    -0.02500
H339        H  0.53309413  0.31647858  0.23646582     0.04900
C340        C  0.51666184  0.37740846  0.18837164     0.20400
H341        H  0.35917889  0.22882709  0.17326686     0.10100
C342        C  0.55435406  0.38999660  0.15718860    -0.15900
C343        C  0.59318976  0.44030706  0.15262158     0.03100
C344        C  0.59464240  0.47969312  0.17974144    -0.11200
C345        C  0.55602712  0.46643419  0.21069115    -0.01200
C346        C  0.51772821  0.41602503  0.21531500    -0.06400
H347        H  0.55424316  0.36017888  0.13693022     0.06100
H348        H  0.55604060  0.49522077  0.23226511     0.09500
Br349      Br  0.40882475  0.33125968  0.13900624    -0.06100
Br350      Br  0.48926904  0.21653419  0.26930738    -0.03000
Br351      Br  0.64309292  0.45072024  0.10949959    -0.00200
Br352      Br  0.46889919  0.40112738  0.26029153    -0.04600
C353        C  0.90102839  0.73288768  0.15898773    -0.12000
C354        C  0.93668200  0.71596350  0.16127682     0.03500
C355        C  0.98859822  0.75141235  0.16608045    -0.12500
C356        C  0.00561558  0.80352739  0.16873429     0.18400
C357        C  0.97071868  0.82054739  0.16313529    -0.09500
C358        C  0.91906822  0.78536624  0.15794081    -0.02500
H359        H  0.01557869  0.73823626  0.17001193     0.04900
C360        C  0.05916686  0.83963441  0.18017769     0.20400
H361        H  0.89239069  0.79923007  0.15627999     0.10100
C362        C  0.09332887  0.86611599  0.14761285    -0.15900
C363        C  0.14352004  0.90295791  0.15757119     0.03100
C364        C  0.16019504  0.91432754  0.20114061    -0.11200
C365        C  0.12612273  0.88623052  0.23359709    -0.01200
C366        C  0.07591244  0.84927241  0.22340945    -0.06400
H367        H  0.08070117  0.85831009  0.11426291     0.06100
H368        H  0.13798474  0.89422531  0.26712244     0.09500
Br369      Br  0.99119479  0.89131016  0.16679485    -0.06100
Br370      Br  0.91695328  0.64563377  0.16327576    -0.03000
Br371      Br  0.18726047  0.93434140  0.10966316    -0.00200
Br372      Br  0.03073802  0.81436312  0.26958119    -0.04600
C373        C  0.00383368  0.30796166  0.66386226    -0.12000
C374        C  0.99897716  0.27100154  0.63258022     0.03500
C375        C  0.98539722  0.27331064  0.59021204    -0.12500
C376        C  0.97618207  0.31192774  0.57803357     0.18400
C377        C  0.97933875  0.34801972  0.60951054    -0.09500
C378        C  0.99306287  0.34580968  0.65221121    -0.02500
H379        H  0.98216163  0.24481789  0.56645882     0.04900
C380        C  0.96336196  0.31270229  0.53213684     0.20400
H381        H  0.99657875  0.37433598  0.67601374     0.10100
C382        C  0.91224502  0.28824981  0.51909659    -0.15900
C383        C  0.89858381  0.27831037  0.47526777     0.03100
C384        C  0.93661099  0.29151222  0.44337853    -0.11200
C385        C  0.98796479  0.31980781  0.45668299    -0.01200
C386        C  0.00136268  0.33060883  0.50051241    -0.06400
H387        H  0.88273016  0.27516570  0.54321941     0.06100
H388        H  0.01801436  0.33158831  0.43315889     0.09500
Br389      Br  0.96674935  0.40152237  0.59526042    -0.06100
Br390      Br  0.00894262  0.21548994  0.64631824    -0.03000
Br391      Br  0.82729694  0.24688009  0.46171324    -0.01400
Br392      Br  0.07209950  0.36827872  0.51617901    -0.04600
C393        C  0.02280485  0.29212417  0.94124239    -0.12000
C394        C  0.03392458  0.26091119  0.96644139     0.03500
C395        C  0.02387985  0.25748463  0.01070242    -0.12500
C396        C  0.00116725  0.28324882  0.03048017     0.18400
C397        C  0.98689926  0.31161981  0.00510526    -0.09500
C398        C  0.99825451  0.31639150  0.96102551    -0.02500
H399        H  0.03256484  0.23343708  0.02964575     0.04900
C400        C  0.98785302  0.27588896  0.07666440     0.20400
H401        H  0.98832372  0.33965005  0.94229181     0.10100
C402        C  0.02069934  0.31061025  0.10839979    -0.15900
C403        C  0.00723498  0.30504479  0.15221135     0.03100
C404        C  0.95964027  0.26436111  0.16458151    -0.11200
C405        C  0.92811511  0.22895362  0.13238095    -0.01200
C406        C  0.94183298  0.23434054  0.08912916    -0.06400
H407        H  0.05680303  0.34219836  0.09900915     0.06100
H408        H  0.89162930  0.19702164  0.14051828     0.09500
Br409      Br  0.95023377  0.34281635  0.02929800    -0.06100
Br410      Br  0.05853793  0.21844223  0.94190985    -0.03000
Br411      Br  0.05615698  0.35303246  0.19304645    -0.00200
Br412      Br  0.89564414  0.18444976  0.04788908    -0.04600
C413        C  0.79971770  0.55052622  0.25343336    -0.12000
C414        C  0.76388707  0.49974372  0.26235276     0.03500
C415        C  0.78044592  0.46559310  0.27169564    -0.12500
C416        C  0.83242395  0.48126621  0.27277130     0.18400
C417        C  0.86822750  0.53278024  0.26753187    -0.09500
C418        C  0.85173548  0.56710908  0.25833974    -0.02500
H419        H  0.75260439  0.42618869  0.27663479     0.04900
C420        C  0.84832548  0.44260902  0.27508285     0.20400
H421        H  0.87974926  0.60614601  0.25237536     0.10100
C422        C  0.85503947  0.42125533  0.23655680    -0.15900
C423        C  0.86889734  0.38370216  0.23687671     0.03100
C424        C  0.87630502  0.36672186  0.27652604    -0.11200
C425        C  0.87044413  0.38901211  0.31512863    -0.01200
C426        C  0.85614100  0.42630478  0.31462173    -0.06400
H427        H  0.84945945  0.43399505  0.20594004     0.06100
H428        H  0.87571195  0.37643099  0.34592173     0.09500
Br429      Br  0.93989519  0.55695192  0.27012800    -0.06100
Br430      Br  0.69190201  0.47513500  0.26221502    -0.03000
Br431      Br  0.87970588  0.35934671  0.18206812    -0.00200
Br432      Br  0.84698418  0.45358664  0.36842695    -0.04600
C433        C  0.81296438  0.05722334  0.25629259    -0.12000
C434        C  0.79809051  0.01848915  0.28620756     0.03500
C435        C  0.78505324  0.96924485  0.27214384    -0.12500
C436        C  0.78675814  0.95704023  0.22840331     0.18400
C437        C  0.79966480  0.99501313  0.19810900    -0.09500
C438        C  0.81226731  0.04457552  0.21212344    -0.02500
H439        H  0.77452241  0.94031893  0.29574596     0.04900
C440        C  0.77738645  0.90508096  0.21639137     0.20400
H441        H  0.82372612  0.07375505  0.18865482     0.10100
C442        C  0.73074711  0.86851311  0.19779508    -0.15900
C443        C  0.71792859  0.81725098  0.19296357     0.03100
C444        C  0.75182914  0.80146861  0.20769784    -0.11200
C445        C  0.79951945  0.83890273  0.22425325    -0.01200
C446        C  0.81247027  0.89000729  0.22831595    -0.06400
H447        H  0.70336210  0.87954060  0.18849094     0.06100
H448        H  0.82687734  0.82830850  0.23465485     0.09500
Br449      Br  0.80383911  0.98161190  0.13785319    -0.06100
Br450      Br  0.79402610  0.03033887  0.34694517    -0.03000
Br451      Br  0.65206791  0.77056284  0.16906479    -0.00200
Br452      Br  0.87859059  0.93824142  0.25086204    -0.04600
C453        C  0.72212733  0.16650661  0.33476065    -0.12000
C454        C  0.70299012  0.20023578  0.33111662     0.03500
C455        C  0.65046994  0.18148824  0.33045632    -0.12500
C456        C  0.61635363  0.12951651  0.33344162     0.18400
C457        C  0.63520822  0.09637812  0.34013812    -0.09500
C458        C  0.68778415  0.11501023  0.34113448    -0.02500
H459        H  0.63614532  0.20724471  0.32558702     0.04900
C460        C  0.56198952  0.11008457  0.32380193     0.20400
H461        H  0.70164154  0.08853956  0.34377912     0.10100
C462        C  0.54449436  0.09311216  0.28159586    -0.15900
C463        C  0.49419925  0.07709443  0.26984883     0.03100
C464        C  0.46009401  0.07822679  0.30076152    -0.11200
C465        C  0.47788666  0.09482262  0.34335557    -0.01200
C466        C  0.52826133  0.11034734  0.35499869    -0.06400
H467        H  0.57054060  0.09315919  0.25739109     0.06100
H468        H  0.45251175  0.09559147  0.36781499     0.09500
Br469      Br  0.59027595  0.02498968  0.34516533    -0.06100
Br470      Br  0.74641594  0.27206705  0.32572067    -0.03000
Br471      Br  0.47658138  0.05754387  0.21037968    -0.00200
Br472      Br  0.54947428  0.13082660  0.41378966    -0.04600
C473        C  0.19651509  0.11093599  0.28255025    -0.12000
C474        C  0.14410072  0.07631912  0.27501193     0.03500
C475        C  0.10795710  0.09078508  0.28545093    -0.12500
C476        C  0.12283770  0.13865547  0.30439700     0.18400
C477        C  0.17432469  0.17164145  0.31468993    -0.09500
C478        C  0.21065963  0.15781108  0.30362767    -0.02500
H479        H  0.06809851  0.06487446  0.27819633     0.04900
C480        C  0.08522535  0.15569742  0.30960784     0.20400
H481        H  0.25038288  0.18457989  0.31051725     0.10100
C482        C  0.06093038  0.15120143  0.34919921    -0.15900
C483        C  0.02713786  0.16979487  0.35524296     0.03100
C484        C  0.01737147  0.19338792  0.32103132    -0.11200
C485        C  0.04204871  0.19754048  0.28145983    -0.01200
C486        C  0.07547087  0.17890298  0.27558466    -0.06400
H487        H  0.06891527  0.13385488  0.37565541     0.06100
H488        H  0.03499067  0.21495801  0.25454305     0.09500
Br489      Br  0.19673933  0.23675456  0.34244676    -0.06100
Br490      Br  0.11874504  0.00815952  0.25254100    -0.03000
Br491      Br  0.99820733  0.16412569  0.41146543    -0.00200
Br492      Br  0.10750068  0.18651659  0.22054361    -0.04600
loop_ 
_geom_bond_atom_site_label_1 
_geom_bond_atom_site_label_2 
_geom_bond_distance 
_geom_bond_site_symmetry_2 
_ccdc_geom_bond_type 
O1          Cr19   1.953       .  S
O1            C9   1.255       .  A
O2          Cr19   2.025       .  S
O2            C3   1.271       .  A
C3            O4   1.262       .  A
C3          C424   1.486       .  S
O4          Cr20   1.978       .  S
O5          Cr20   2.027       .  S
O5            C6   1.268       .  A
C6            O7   1.258       .  A
C6          C384   1.498       .  S
O7          Cr21   1.978       .  S
O8          Cr21   2.030       .  S
O8            C9   1.272       .  A
C9          C453   1.479       .  S
O10         Cr19   2.031       .  S
O10          C18   1.268       .  A
O11         Cr19   1.958       .  S
O11          C12   1.255       .  A
C12          O13   1.270       .  A
C12         C404   1.492       .  S
O13         Cr20   2.038       .  S
O14         Cr20   1.960       .  S
O14          C15   1.261       .  A
C15          O16   1.271       .  A
C15         C484   1.484   1_655  S
O16         Cr21   2.022       .  S
O17         Cr21   1.971       .  S
O17          C18   1.256       .  A
C18         C433   1.490       .  S
Cr19         O22   1.762       .  S
Cr20         O22   1.774       .  S
Cr21         O22   1.766       .  S
O23         Cr41   1.964       .  S
O23          C31   1.255       .  A
O24         Cr41   2.020       .  S
O24          C25   1.269       .  A
C25          O26   1.265       .  A
C25         C344   1.498       .  S
O26         Cr42   1.982       .  S
O27         Cr42   2.028       .  S
O27          C28   1.268       .  A
C28          O29   1.252       .  A
C28         C313   1.471       .  S
O29         Cr43   1.948       .  S
O30         Cr43   2.031       .  S
O30          C31   1.268       .  A
C31         C413   1.481       .  S
O32         Cr41   2.042       .  S
O32          C40   1.272       .  A
O33         Cr41   1.965       .  S
O33          C34   1.260       .  A
C34          O35   1.267       .  A
C34         C293   1.485       .  S
O35         Cr42   2.014       .  S
O36         Cr42   1.995       .  S
O36          C37   1.265       .  A
C37          O38   1.271       .  A
C37         C444   1.500       .  S
O38         Cr43   2.023       .  S
O39         Cr43   1.944       .  S
O39          C40   1.253       .  A
C40         C353   1.480       .  S
Cr41         O44   1.762       .  S
Cr42         O44   1.769       .  S
Cr43         O44   1.755       .  S
O45         Cr63   2.016       .  S
O45          C53   1.269       .  A
O46         Cr63   1.956       .  S
O46          C47   1.253       .  A
C47          O48   1.270       .  A
C47         C333   1.493       .  S
O48         Cr64   2.030       .  S
O49         Cr64   1.966       .  S
O49          C50   1.259       .  A
C50          O51   1.272   1_545  A
C50         C273   1.486       .  S
O51         Cr65   2.041       .  S
O52         Cr65   1.979   1_545  S
O52          C53   1.263       .  A
C53         C464   1.488       .  S
O54         Cr63   1.956       .  S
O54          C62   1.251       .  A
O55         Cr63   2.011       .  S
O55          C56   1.267       .  A
C56          O57   1.256       .  A
C56         C473   1.484       .  S
O57         Cr64   1.971       .  S
O58         Cr64   2.007   1_565  S
O58          C59   1.267       .  A
C59          O60   1.266       .  A
C59         C364   1.483       .  S
O60         Cr65   1.987       .  S
O61         Cr65   2.043       .  S
O61          C62   1.272   1_565  A
C62         C264   1.488       .  S
Cr63         O66   1.762       .  S
Cr64         O66   1.764       .  S
Cr65         O66   1.773   1_565  S
O67         Cr85   1.948       .  S
O67          C75   1.252       .  A
O68         Cr85   2.019       .  S
O68          C69   1.270       .  A
C69          O70   1.261       .  A
C69         C193   1.480       .  S
O70         Cr86   1.983       .  S
O71         Cr86   2.030       .  S
O71          C72   1.271       .  A
C72          O73   1.251       .  A
C72         C324   1.489       .  S
O73         Cr87   1.953       .  S
O74         Cr87   2.027       .  S
O74          C75   1.269       .  A
C75         C224   1.468       .  S
O76         Cr85   2.038       .  S
O76          C84   1.270       .  A
O77         Cr85   1.952       .  S
O77          C78   1.255       .  A
C78          O79   1.272       .  A
C78         C304   1.486       .  S
O79         Cr86   2.034       .  S
O80         Cr86   1.968       .  S
O80          C81   1.260       .  A
C81          O82   1.270       .  A
C81         C244   1.479       .  S
O82         Cr87   2.016       .  S
O83         Cr87   1.955       .  S
O83          C84   1.252       .  A
C84         C184   1.473       .  S
Cr85         O88   1.757       .  S
Cr86         O88   1.767       .  S
Cr87         O88   1.761       .  S
O89        Cr107   2.015       .  S
O89          C97   1.269       .  A
O90        Cr107   1.960       .  S
O90          C91   1.258       .  A
C91          O92   1.271       .  A
C91         C133   1.499       .  S
O92        Cr108   2.038       .  S
O93        Cr108   1.968       .  S
O93          C94   1.257       .  A
C94          O95   1.272       .  A
C94         C284   1.492       .  S
O95        Cr109   2.033       .  S
O96        Cr109   1.971       .  S
O96          C97   1.260       .  A
C97         C213   1.478       .  S
O98        Cr107   1.965       .  S
O98         C106   1.256       .  A
O99        Cr107   2.018       .  S
O99         C100   1.267       .  A
C100        O101   1.256       .  A
C100        C233   1.488       .  S
O101       Cr108   1.966       .  S
O102       Cr108   2.024       .  S
O102        C103   1.272       .  A
C103        O104   1.260       .  A
C103        C153   1.484   1_565  S
O104       Cr109   1.971       .  S
O105       Cr109   2.035       .  S
O105        C106   1.271       .  A
C106        C253   1.482       .  S
Cr107       O110   1.761       .  S
Cr108       O110   1.765       .  S
Cr109       O110   1.769       .  S
O111       Cr129   1.967       .  S
O111        C119   1.257       .  A
O112       Cr129   2.030       .  S
O112        C113   1.272       .  A
C113        O114   1.259       .  A
C113        C144   1.494       .  S
O114       Cr130   1.971       .  S
O115       Cr130   2.031   1_655  S
O115        C116   1.270   1_655  A
C116        O117   1.257       .  A
C116        C373   1.476       .  S
O117       Cr131   1.964       .  S
O118       Cr131   2.030       .  S
O118        C119   1.270       .  A
C119        C204   1.482       .  S
O120       Cr129   2.038       .  S
O120        C128   1.271       .  A
O121       Cr129   1.974       .  S
O121        C122   1.259       .  A
C122        O123   1.271       .  A
C122        C393   1.489       .  S
O123       Cr130   2.028       .  S
O124       Cr130   1.977   1_655  S
O124        C125   1.260       .  A
C125        O126   1.268   1_655  A
C125        C173   1.485       .  S
O126       Cr131   2.012       .  S
O127       Cr131   1.956       .  S
O127        C128   1.253       .  A
C128        C164   1.478       .  S
Cr129       O132   1.767       .  S
Cr130       O132   1.769       .  S
Cr131       O132   1.765       .  S
C133        C134   1.419       .  A
C133        C138   1.412       .  A
C134        C135   1.409       .  A
C134       Br150   1.919       .  S
C135        C136   1.404       .  A
C135        H139   1.084       .  S
C136        C140   1.484       .  S
C136        C137   1.403       .  A
C137        C138   1.395       .  A
C137       Br149   1.920       .  S
C138        H141   1.083       .  S
C140        C142   1.400       .  A
C140        C146   1.407       .  A
C142        C143   1.402       .  A
C142        H147   1.085       .  S
C143        C144   1.420       .  A
C143       Br151   1.922   1_455  S
C144        C145   1.408       .  A
C145        C146   1.403       .  A
C145        H148   1.084       .  S
C146       Br152   1.918       .  S
C153        C154   1.416       .  A
C153        C158   1.406       .  A
C154        C155   1.400       .  A
C154       Br170   1.919       .  S
C155        C156   1.401       .  A
C155        H159   1.084       .  S
C156        C160   1.481       .  S
C156        C157   1.407       .  A
C157        C158   1.400       .  A
C157       Br169   1.917       .  S
C158        H161   1.085       .  S
C160        C162   1.402       .  A
C160        C166   1.408       .  A
C162        C163   1.398       .  A
C162        H167   1.075       .  S
C163        C164   1.411       .  A
C163       Br171   1.921       .  S
C164        C165   1.406       .  A
C165        C166   1.404       .  A
C165        H168   1.076       .  S
C166       Br172   1.918       .  S
C173        C174   1.417       .  A
C173        C178   1.407       .  A
C174        C175   1.402       .  A
C174       Br190   1.921       .  S
C175        C176   1.400       .  A
C175        H179   1.084       .  S
C176        C180   1.477   1_545  S
C176        C177   1.406       .  A
C177        C178   1.397       .  A
C177       Br189   1.919       .  S
C178        H181   1.084       .  S
C180        C182   1.399       .  A
C180        C186   1.408       .  A
C182        C183   1.395       .  A
C182        H187   1.084   1_565  S
C183        C184   1.411       .  A
C183       Br191   1.918       .  S
C184        C185   1.403       .  A
C185        C186   1.405       .  A
C185        H188   1.083       .  S
C186       Br192   1.917       .  S
C193        C194   1.410       .  A
C193        C198   1.407       .  A
C194        C195   1.397       .  A
C194       Br210   1.919       .  S
C195        C196   1.401       .  A
C195        H199   1.084       .  S
C196        C200   1.481       .  S
C196        C197   1.408       .  A
C197        C198   1.405       .  A
C197       Br209   1.917       .  S
C198        H201   1.084       .  S
C200        C202   1.402       .  A
C200        C206   1.407       .  A
C202        C203   1.402       .  A
C202        H207   1.076       .  S
C203        C204   1.413       .  A
C203       Br211   1.922       .  S
C204        C205   1.406       .  A
C205        C206   1.402       .  A
C205        H208   1.079       .  S
C206       Br212   1.918       .  S
C213        C214   1.414       .  A
C213        C218   1.407       .  A
C214        C215   1.398       .  A
C214       Br230   1.922       .  S
C215        C216   1.402       .  A
C215        H219   1.085       .  S
C216        C220   1.474       .  S
C216        C217   1.404       .  A
C217        C218   1.398       .  A
C217       Br229   1.918       .  S
C218        H221   1.085       .  S
C220        C222   1.401       .  A
C220        C226   1.407       .  A
C222        C223   1.397       .  A
C222        H227   1.084       .  S
C223        C224   1.411       .  A
C223       Br231   1.921       .  S
C224        C225   1.402       .  A
C225        C226   1.397       .  A
C225        H228   1.083       .  S
C226       Br232   1.918       .  S
C233        C234   1.415       .  A
C233        C238   1.411       .  A
C234        C235   1.399   1_455  A
C234       Br250   1.920       .  S
C235        C236   1.401       .  A
C235        H239   1.084       .  S
C236        C240   1.478       .  S
C236        C237   1.407       .  A
C237        C238   1.399   1_655  A
C237       Br249   1.921       .  S
C238        H241   1.083       .  S
C240        C242   1.402       .  A
C240        C246   1.408       .  A
C242        C243   1.397       .  A
C242        H247   1.085       .  S
C243        C244   1.412       .  A
C243       Br251   1.920       .  S
C244        C245   1.407       .  A
C245        C246   1.401       .  A
C245        H248   1.085       .  S
C246       Br252   1.919       .  S
C253        C254   1.414       .  A
C253        C258   1.406       .  A
C254        C255   1.400       .  A
C254       Br270   1.921       .  S
C255        C256   1.401       .  A
C255        H259   1.083       .  S
C256        C260   1.481       .  S
C256        C257   1.408       .  A
C257        C258   1.403       .  A
C257       Br269   1.919       .  S
C258        H261   1.083       .  S
C260        C262   1.397   1_565  A
C260        C266   1.409       .  A
C262        C263   1.397       .  A
C262        H267   1.084       .  S
C263        C264   1.422       .  A
C263       Br271   1.925       .  S
C264        C265   1.406   1_545  A
C265        C266   1.404       .  A
C265        H268   1.083       .  S
C266       Br272   1.917       .  S
C273        C274   1.412   1_545  A
C273        C278   1.404       .  A
C274        C275   1.409       .  A
C274       Br290   1.914       .  S
C275        C276   1.408       .  A
C275        H279   1.083       .  S
C276        C280   1.489   1_554  S
C276        C277   1.408   1_565  A
C277        C278   1.394       .  A
C277       Br289   1.923       .  S
C278        H281   1.084       .  S
C280        C282   1.401       .  A
C280        C286   1.412   1_565  A
C282        C283   1.402       .  A
C282        H287   1.084       .  S
C283        C284   1.418       .  A
C283       Br291   1.922       .  S
C284        C285   1.407       .  A
C285        C286   1.402   1_565  A
C285        H288   1.083   1_565  S
C286       Br292   1.921       .  S
C293        C294   1.417       .  A
C293        C298   1.409       .  A
C294        C295   1.400   1_554  A
C294       Br310   1.922       .  S
C295        C296   1.401       .  A
C295        H299   1.083       .  S
C296        C300   1.472       .  S
C296        C297   1.403       .  A
C297        C298   1.395   1_556  A
C297       Br309   1.919       .  S
C298        H301   1.083       .  S
C300        C302   1.395       .  A
C300        C306   1.405       .  A
C302        C303   1.392       .  A
C302        H307   1.085       .  S
C303        C304   1.419       .  A
C303       Br311   1.923       .  S
C304        C305   1.410       .  A
C305        C306   1.402       .  A
C305        H308   1.083       .  S
C306       Br312   1.918       .  S
C313        C314   1.414       .  A
C313        C318   1.405       .  A
C314        C315   1.388       .  A
C314       Br330   1.925       .  S
C315        C316   1.397       .  A
C315        H319   1.084       .  S
C316        C320   1.474       .  S
C316        C317   1.410       .  A
C317        C318   1.404       .  A
C317       Br329   1.917       .  S
C318        H321   1.083       .  S
C320        C322   1.396       .  A
C320        C326   1.407       .  A
C322        C323   1.396       .  A
C322        H327   1.084       .  S
C323        C324   1.424       .  A
C323       Br331   1.926       .  S
C324        C325   1.408       .  A
C325        C326   1.399       .  A
C325        H328   1.083       .  S
C326       Br332   1.920       .  S
C333        C334   1.422       .  A
C333        C338   1.410       .  A
C334        C335   1.397       .  A
C334       Br350   1.926       .  S
C335        C336   1.397       .  A
C335        H339   1.083       .  S
C336        C340   1.481       .  S
C336        C337   1.407       .  A
C337        C338   1.405       .  A
C337       Br349   1.917       .  S
C338        H341   1.082       .  S
C340        C342   1.399       .  A
C340        C346   1.405       .  A
C342        C343   1.403       .  A
C342        H347   1.084       .  S
C343        C344   1.422       .  A
C343       Br351   1.922       .  S
C344        C345   1.411       .  A
C345        C346   1.400       .  A
C345        H348   1.083       .  S
C346       Br352   1.919       .  S
C353        C354   1.413       .  A
C353        C358   1.409       .  A
C354        C355   1.402       .  A
C354       Br370   1.917       .  S
C355        C356   1.402   1_655  A
C355        H359   1.084   1_655  S
C356        C360   1.475       .  S
C356        C357   1.404   1_455  A
C357        C358   1.395       .  A
C357       Br369   1.920       .  S
C358        H361   1.085       .  S
C360        C362   1.397       .  A
C360        C366   1.408       .  A
C362        C363   1.398       .  A
C362        H367   1.084       .  S
C363        C364   1.418       .  A
C363       Br371   1.920       .  S
C364        C365   1.405       .  A
C365        C366   1.400       .  A
C365        H368   1.083       .  S
C366       Br372   1.919       .  S
C373        C374   1.410   1_455  A
C373        C378   1.404   1_455  A
C374        C375   1.396       .  A
C374       Br390   1.921   1_655  S
C375        C376   1.401       .  A
C375        H379   1.084       .  S
C376        C380   1.485       .  S
C376        C377   1.411       .  A
C377        C378   1.407       .  A
C377       Br389   1.915       .  S
C378        H381   1.083       .  S
C380        C382   1.400       .  A
C380        C386   1.407   1_655  A
C382        C383   1.404       .  A
C382        H387   1.083       .  S
C383        C384   1.419       .  A
C383       Br391   1.921       .  S
C384        C385   1.410       .  A
C385        C386   1.403   1_655  A
C385        H388   1.083   1_655  S
C386       Br392   1.919       .  S
C393        C394   1.416       .  A
C393        C398   1.407   1_455  A
C394        C395   1.401   1_556  A
C394       Br410   1.919       .  S
C395        C396   1.400       .  A
C395        H399   1.085       .  S
C396        C400   1.480   1_455  S
C396        C397   1.407   1_455  A
C397        C398   1.403   1_554  A
C397       Br409   1.919       .  S
C398        H401   1.084       .  S
C400        C402   1.405   1_655  A
C400        C406   1.401       .  A
C402        C403   1.408       .  A
C402        H407   1.083       .  S
C403        C404   1.417   1_455  A
C403       Br411   1.920       .  S
C404        C405   1.410       .  A
C405        C406   1.393       .  A
C405        H408   1.083       .  S
C406       Br412   1.919       .  S
C413        C414   1.414       .  A
C413        C418   1.404       .  A
C414        C415   1.400       .  A
C414       Br430   1.922       .  S
C415        C416   1.401       .  A
C415        H419   1.085       .  S
C416        C420   1.481       .  S
C416        C417   1.408       .  A
C417        C418   1.402       .  A
C417       Br429   1.917       .  S
C418        H421   1.084       .  S
C420        C422   1.402       .  A
C420        C426   1.405       .  A
C422        C423   1.400       .  A
C422        H427   1.085       .  S
C423        C424   1.414       .  A
C423       Br431   1.921       .  S
C424        C425   1.409       .  A
C425        C426   1.402       .  A
C425        H428   1.084       .  S
C426       Br432   1.917       .  S
C433        C434   1.413       .  A
C433        C438   1.408       .  A
C434        C435   1.400   1_545  A
C434       Br450   1.921       .  S
C435        C436   1.402       .  A
C435        H439   1.084       .  S
C436        C440   1.494       .  S
C436        C437   1.412       .  A
C437        C438   1.411   1_565  A
C437       Br449   1.916       .  S
C438        H441   1.084       .  S
C440        C442   1.405       .  A
C440        C446   1.408       .  A
C442        C443   1.410       .  A
C442        H447   1.083       .  S
C443        C444   1.418       .  A
C443       Br451   1.919       .  S
C444        C445   1.409       .  A
C445        C446   1.403       .  A
C445        H448   1.084       .  S
C446       Br452   1.920       .  S
C453        C454   1.416       .  A
C453        C458   1.405       .  A
C454        C455   1.398       .  A
C454       Br470   1.923       .  S
C455        C456   1.400       .  A
C455        H459   1.084       .  S
C456        C460   1.477       .  S
C456        C457   1.406       .  A
C457        C458   1.401       .  A
C457       Br469   1.917       .  S
C458        H461   1.084       .  S
C460        C462   1.399       .  A
C460        C466   1.404       .  A
C462        C463   1.397       .  A
C462        H467   1.084       .  S
C463        C464   1.416       .  A
C463       Br471   1.916       .  S
C464        C465   1.410       .  A
C465        C466   1.402       .  A
C465        H468   1.083       .  S
C466       Br472   1.917       .  S
C473        C474   1.418       .  A
C473        C478   1.406       .  A
C474        C475   1.400       .  A
C474       Br490   1.923       .  S
C475        C476   1.400       .  A
C475        H479   1.085       .  S
C476        C480   1.474       .  S
C476        C477   1.404       .  A
C477        C478   1.397       .  A
C477       Br489   1.918       .  S
C478        H481   1.084       .  S
C480        C482   1.402       .  A
C480        C486   1.403       .  A
C482        C483   1.403       .  A
C482        H487   1.084       .  S
C483        C484   1.416       .  A
C483       Br491   1.920   1_455  S
C484        C485   1.408       .  A
C485        C486   1.393       .  A
C485        H488   1.083       .  S
C486       Br492   1.920       .  S
