geometry optimzed in LAMMPS
_audit_creation_date              2020-11-30 
_audit_creation_method            'lammps2cif' 
_symmetry_space_group_name_H-M    'P1' 
_symmetry_Int_Tables_number       1 
_symmetry_cell_setting            triclinic 
loop_ 
_symmetry_equiv_pos_as_xyz 
  x,y,z 
_cell_length_a                    39.00286196 
_cell_length_b                    39.06555044400541 
_cell_length_c                    40.14356044197908 
_cell_angle_alpha                 89.97948000289288 
_cell_angle_beta                  89.93984713981031 
_cell_angle_gamma                 85.51312927829571 
loop_ 
_atom_site_label 
_atom_site_type_symbol 
_atom_site_fract_x 
_atom_site_fract_y 
_atom_site_fract_z 
_atom_site_charge 
O1          O  0.99424876  0.40130698  0.45146855    -0.75000
O2          O  0.99764779  0.44319979  0.41203246    -0.53900
C3          C  0.99635603  0.41181515  0.42117178     0.78800
O4          O  0.39959710  0.00764879  0.06132324    -0.59600
O5          O  0.44215454  0.00412170  0.10057109    -0.52600
C6          C  0.41019499  0.50664437  0.09127393     0.70800
O7          O  0.40089270  0.00796982  0.44866994    -0.74100
O8          O  0.44367529  0.00542050  0.40960193    -0.54700
C9          C  0.41189651  0.00723242  0.41835669     0.76800
O10         O  0.99185108  0.40345960  0.06181525    -0.59300
O11         O  0.99378920  0.44648934  0.10028525    -0.52400
C12         C  0.49302883  0.41415457  0.09188281     0.73400
Zr13       Zr  0.99453617  0.42604274  0.50733382     2.54700
O14         O  0.44621713  0.39086683  0.50726473    -0.79800
O15         O  0.03424210  0.37751618  0.00432292    -0.93200
Zr16       Zr  0.42446021  0.00804437  0.50523602     2.64700
O17         O  0.37380360  0.47711011  0.50659809    -0.98200
O18         O  0.38962478  0.06356464  0.00224250    -0.80300
O19         O  0.45900833  0.46821958  0.47356089    -0.83600
O20         O  0.45648399  0.46795850  0.03710904    -2.18300
O21         O  0.09252744  0.48521749  0.06088267    -0.67000
O22         O  0.05012499  0.49183153  0.09985428    -0.51600
C23         C  0.08203444  0.48674650  0.09124448     0.71800
O24         O  0.50229378  0.09580213  0.45062250    -0.59900
O25         O  0.49944556  0.05394053  0.41118070    -0.51900
C26         C  0.00366782  0.08311149  0.41942085     0.73600
O27         O  0.50149135  0.09536817  0.06098577    -0.71300
O28         O  0.49858076  0.05307814  0.10003557    -0.50000
C29         C  0.50077773  0.08456645  0.09118122     0.75000
O30         O  0.09216419  0.48844144  0.45005861    -0.66600
O31         O  0.05015022  0.49195842  0.41069986    -0.53800
C32         C  0.08334007  0.98762170  0.42060462     0.73300
Zr33       Zr  0.06785207  0.48955837  0.00509341     2.77500
O34         O  0.11708226  0.02379620  0.50693028    -0.97400
O35         O  0.10764194  0.43940715  0.50509234    -0.78200
Zr36       Zr  0.49996149  0.07081149  0.00544054     2.70100
O37         O  0.04636758  0.10607089  0.00342014    -0.79500
O38         O  0.45855647  0.12002347  0.50418238    -0.98500
Zr39       Zr  0.99752558  0.99827110  0.44199234     2.21500
Zr40       Zr  0.49561632  0.49866521  0.06902365     2.11100
O41         O  0.03384331  0.03149100  0.03722351    -2.47200
O42         O  0.03623421  0.02911710  0.47384478    -0.79200
O43         O  0.03055932  0.45797108  0.03760306    -0.71400
O44         O  0.46167893  0.04027045  0.47313720    -2.32400
O45         O  0.03174888  0.45731869  0.47429724    -2.28600
O46         O  0.46111936  0.04058348  0.03784389    -0.73200
H47         H  0.44162767  0.45573007  0.05132121     0.78800
H48         H  0.44822281  0.05614725  0.45894945     0.79900
H49         H  0.04842255  0.04436099  0.05110435     0.82100
H50         H  0.04580452  0.44172175  0.46034511     0.79700
H51         H  0.36424554  0.05276165  0.51651289     0.42700
H52         H  0.44175780  0.11510283  0.02483707     0.41700
H53         H  0.06698942  0.09572165  0.50873951     0.41400
H54         H  0.11168875  0.04137242  0.98691404     0.39300
H55         H  0.09629996  0.42157028  0.01834070     0.42500
H56         H  0.02771586  0.35841098  0.50850190     0.37200
H57         H  0.42530726  0.40690081  0.50850636     0.43400
H58         H  0.37717391  0.45918376  0.02204317     0.39800
H59         H  0.11032186  0.04250030  0.02587282     0.44700
H60         H  0.02043591  0.35776489  0.00001294     0.43400
H61         H  0.35593326  0.49238866  0.51785388     0.43600
H62         H  0.46682155  0.13848685  0.00678312     0.43900
N63         N  0.49249556  0.24955134  0.20516039    -0.36300
N64         N  0.50184789  0.19628592  0.25534830    -0.56800
N65         N  0.49226048  0.24893391  0.30709928    -0.36300
N66         N  0.48621642  0.30204892  0.25684963    -0.56800
C67         C  0.50217140  0.22205185  0.18587102     0.27300
C68         C  0.49647730  0.27800157  0.18675204     0.27300
C69         C  0.50355598  0.22129989  0.32544170     0.27300
C70         C  0.49485781  0.27705270  0.32634819     0.27300
C71         C  0.49879065  0.17605874  0.22832579     0.35900
C72         C  0.49996519  0.17575324  0.28229685     0.35900
C73         C  0.48011954  0.32237918  0.22991667     0.35900
C74         C  0.47853002  0.32179757  0.28390685     0.35900
C75         C  0.51199257  0.23309294  0.15473312    -0.21600
C76         C  0.50872291  0.26836873  0.15538063    -0.21600
C77         C  0.51314830  0.23194391  0.35682327    -0.21600
C78         C  0.50788402  0.26713548  0.35731697    -0.21600
C79         C  0.49592040  0.14238666  0.23812997    -0.22600
C80         C  0.49679625  0.14216781  0.27232855    -0.22600
C81         C  0.46865520  0.35527326  0.23993336    -0.22600
C82         C  0.46766741  0.35490583  0.27412862    -0.22600
C83         C  0.50014512  0.18728137  0.19488398    -0.18000
C84         C  0.48701346  0.31233182  0.19653191    -0.18000
C85         C  0.48431234  0.31126411  0.31728225    -0.18000
C86         C  0.50213295  0.18664036  0.31577959    -0.18000
H87         H  0.52044374  0.21739213  0.13362615     0.14900
H88         H  0.51414311  0.28500626  0.13479038     0.14900
H89         H  0.52249570  0.21602421  0.37745852     0.14900
H90         H  0.51251752  0.28349093  0.37833691     0.14900
H91         H  0.49356065  0.12027328  0.22229964     0.13200
H92         H  0.49516120  0.11984653  0.28806328     0.13200
H93         H  0.46218596  0.37738821  0.22426968     0.13200
H94         H  0.46044952  0.37669070  0.28999655     0.13200
H95         H  0.47992598  0.24879214  0.22791951     0.26500
H96         H  0.47949885  0.24820212  0.28445935     0.26500
N97         N  0.24786290  0.48934569  0.20493005    -0.36300
N98         N  0.19625278  0.48385627  0.25531547    -0.56800
N99         N  0.24804307  0.48717756  0.30633771    -0.36300
N100        N  0.30012090  0.49318420  0.25586874    -0.56800
C101        C  0.21871778  0.49626342  0.18706167     0.27300
C102        C  0.27398052  0.50123396  0.18729827     0.27300
C103        C  0.21883001  0.49492427  0.32390834     0.27300
C104        C  0.27442251  0.49765065  0.32455318     0.27300
C105        C  0.17833366  0.47515652  0.22830246     0.35900
C106        C  0.17828987  0.47493031  0.28224687     0.35900
C107        C  0.32059353  0.48979178  0.22869691     0.35900
C108        C  0.32073802  0.48764742  0.28268832     0.35900
C109        C  0.22642223  0.51288349  0.15777155    -0.21600
C110        C  0.26136729  0.51594080  0.15788169    -0.21600
C111        C  0.22679933  0.51078369  0.35354290    -0.21600
C112        C  0.26197094  0.51217262  0.35408849    -0.21600
C113        C  0.14897038  0.45998876  0.23804731    -0.22600
C114        C  0.14898154  0.45977945  0.27236936    -0.22600
C115        C  0.35449500  0.48232964  0.23825669    -0.22600
C116        C  0.35457770  0.48085399  0.27252472    -0.22600
C117        C  0.18594744  0.48562965  0.19562796    -0.18000
C118        C  0.30917454  0.49596117  0.19565925    -0.18000
C119        C  0.30959016  0.49192435  0.31608838    -0.18000
C120        C  0.18575609  0.48532163  0.31495994    -0.18000
H121        H  0.20882207  0.52134248  0.13807350     0.14900
H122        H  0.27596264  0.52702381  0.13822478     0.14900
H123        H  0.20921048  0.51978858  0.37308530     0.14900
H124        H  0.27673057  0.52244912  0.37404193     0.14900
H125        H  0.12897363  0.45136719  0.22215092     0.13200
H126        H  0.12899811  0.45094888  0.28820057     0.13200
H127        H  0.37685193  0.47888079  0.22225705     0.13200
H128        H  0.37704193  0.47610562  0.28815704     0.13200
H129        H  0.25053371  0.47349630  0.22576250     0.26500
H130        H  0.25043369  0.47178705  0.28516598     0.26500
C131        C  0.16441743  0.46455631  0.14188954    -0.05400
C132        C  0.15863118  0.48625916  0.16949050     0.00500
C133        C  0.12732188  0.50723727  0.17157052    -0.08100
C134        C  0.10219223  0.50398990  0.14697052    -0.05500
C135        C  0.10863044  0.48404610  0.11818606     0.00500
C136        C  0.14047734  0.46359966  0.11567666    -0.08000
C137        C  0.14929072  0.44009998  0.08620475     0.62400
H138        H  0.18847903  0.44874676  0.14081220     0.13100
H139        H  0.07773448  0.51884484  0.14958930     0.13100
C140        C  0.11923483  0.53434139  0.19817411     0.62600
F141        F  0.17897741  0.41900887  0.09165893    -0.22600
F142        F  0.15463996  0.45941247  0.05808874    -0.19900
F143        F  0.12206682  0.92365044  0.08150079    -0.19600
F144        F  0.10773304  0.56495498  0.18312832    -0.19600
F145        F  0.14687775  0.04531484  0.21900380    -0.19900
F146        F  0.09165381  0.03288718  0.21717204    -0.22600
C147        C  0.10391163  0.00904414  0.36701669    -0.05400
C148        C  0.10869935  0.48620910  0.39287338     0.00500
C149        C  0.14090265  0.46660997  0.39615305    -0.08100
C150        C  0.16441702  0.46624224  0.36952057    -0.05500
C151        C  0.15821649  0.48648965  0.34096932     0.00500
C152        C  0.12664844  0.50701605  0.33821857    -0.08000
C153        C  0.12291838  0.04021243  0.31595168     0.62400
H154        H  0.08046445  0.02577251  0.36665492     0.13100
H155        H  0.18865152  0.45078260  0.37112100     0.13100
C156        C  0.15076691  0.44574829  0.42715805     0.62600
F157        F  0.10340184  0.56295968  0.32334371    -0.22600
F158        F  0.09483273  0.51918814  0.28886756    -0.19900
F159        F  0.15203442  0.05815877  0.31390089    -0.19600
F160        F  0.12528677  0.42435061  0.43477889    -0.19600
F161        F  0.15566889  0.95545186  0.45097085    -0.19900
F162        F  0.18115491  0.42541552  0.42288717    -0.22600
C163        C  0.35177863  0.52858724  0.16547600    -0.05400
C164        C  0.33507582  0.49822539  0.16860031     0.00500
C165        C  0.34253559  0.47098539  0.14577209    -0.08100
C166        C  0.36715010  0.47494749  0.12069748    -0.05500
C167        C  0.38413079  0.50512591  0.11782573     0.00500
C168        C  0.37613377  0.53259392  0.14013273    -0.06900
C169        C  0.38991659  0.06854111  0.13190034     0.62400
H170        H  0.34539470  0.54916717  0.18302226     0.13100
H171        H  0.37357685  0.45435631  0.10316367     0.13100
C172        C  0.32486882  0.43777529  0.14817176     0.62600
F173        F  0.37463014  0.09468905  0.15140913    -0.22600
F174        F  0.38656013  0.07834483  0.09887635    -0.19900
F175        F  0.42783753  0.56021095  0.14250607    -0.19600
F176        F  0.29632728  0.93932840  0.15291650    -0.19600
F177        F  0.33054440  0.42327210  0.17930053    -0.19900
F178        F  0.33704979  0.41410352  0.12447943    -0.22600
C179        C  0.35293591  0.03181055  0.34529418    -0.05400
C180        C  0.33578665  0.49346347  0.34299252     0.00500
C181        C  0.34038974  0.46849607  0.36872227    -0.08100
C182        C  0.36482532  0.47318354  0.39372591    -0.05500
C183        C  0.38550606  0.50097535  0.39320072     0.00500
C184        C  0.37916558  0.03413028  0.36907321    -0.08000
C185        C  0.39930570  0.06573627  0.37029536     0.62400
H186        H  0.34699160  0.05258097  0.32784729     0.13100
H187        H  0.36849128  0.45431316  0.41349756     0.13100
C188        C  0.32083660  0.43641366  0.37121262     0.62600
F189        F  0.38785191  0.08986970  0.34674607    -0.22600
F190        F  0.43366965  0.05658272  0.36406577    -0.19900
F191        F  0.39585152  0.08071536  0.40145300    -0.19600
F192        F  0.34399369  0.40791926  0.37453876    -0.19600
F193        F  0.30064749  0.43109151  0.34375154    -0.19900
F194        F  0.29996900  0.43883770  0.39913246    -0.22600
C195        C  0.47030792  0.12630436  0.12879766    -0.05400
C196        C  0.50169638  0.11075793  0.11748640     0.00500
C197        C  0.03143817  0.12565177  0.12455567    -0.08100
C198        C  0.03183697  0.14977436  0.15055799    -0.05500
C199        C  0.50001598  0.16121400  0.16775216     0.00500
C200        C  0.46890613  0.15208614  0.15327338    -0.08000
C201        C  0.43452797  0.17022782  0.16298047     0.62400
H202        H  0.44688201  0.11876300  0.11748744     0.13100
H203        H  0.05589519  0.15898198  0.15880536     0.13100
C204        C  0.06450692  0.11364388  0.10669135     0.62600
F205        F  0.40761606  0.15791919  0.14531874    -0.22600
F206        F  0.43477977  0.20495193  0.15638626    -0.19900
F207        F  0.42846663  0.16556262  0.19653536    -0.19600
F208        F  0.06138250  0.12103032  0.07310111    -0.19600
F209        F  0.07103507  0.07863800  0.11068051    -0.19900
F210        F  0.09240047  0.12963347  0.11874335    -0.22600
C211        C  0.03654089  0.14563666  0.35636783    -0.05400
C212        C  0.50163740  0.16049136  0.34263524     0.00500
C213        C  0.47021257  0.15070064  0.35591930    -0.08100
C214        C  0.47128271  0.12586129  0.38129403    -0.05500
C215        C  0.50256712  0.11155188  0.39410529     0.00500
C216        C  0.03666231  0.12219457  0.38305825    -0.08000
C217        C  0.06966815  0.11271811  0.40199551     0.62400
H218        H  0.06021760  0.15590428  0.34841124     0.13100
H219        H  0.44766941  0.11763307  0.39161934     0.13100
C220        C  0.43580606  0.16663037  0.34340409     0.62600
F221        F  0.09767245  0.12645749  0.38735755    -0.22600
F222        F  0.07612872  0.07749017  0.40310211    -0.19900
F223        F  0.06644507  0.12516736  0.43417185    -0.19600
F224        F  0.43119443  0.15753756  0.31053989    -0.19600
F225        F  0.43472944  0.20201492  0.34573823    -0.19900
F226        F  0.40861615  0.15586347  0.36178866    -0.22600
C227        C  0.02262269  0.35334321  0.16058061    -0.05400
C228        C  0.48633636  0.33953715  0.17039204     0.00500
C229        C  0.46217370  0.34176245  0.14391193    -0.08100
C230        C  0.46619147  0.36565495  0.11828673    -0.05500
C231        C  0.49209065  0.38862779  0.11920367     0.00500
C232        C  0.02387533  0.37721508  0.13458378    -0.08000
C233        C  0.05813877  0.38876208  0.12305841     0.62400
H234        H  0.04609464  0.34311652  0.17258208     0.13100
H235        H  0.44808765  0.36714208  0.09774515     0.13100
C236        C  0.43165782  0.32000805  0.14137325     0.62600
F237        F  0.08538039  0.37335334  0.14107901    -0.22600
F238        F  0.05832133  0.42384394  0.12696615    -0.19900
F239        F  0.06311209  0.38044601  0.08981882    -0.19600
F240        F  0.40203355  0.34119740  0.13615009    -0.19600
F241        F  0.42659036  0.30090299  0.16967286    -0.19900
F242        F  0.43647111  0.29789401  0.11458825    -0.22600
C243        C  0.02538794  0.35197929  0.35074467    -0.05400
C244        C  0.48446465  0.33834574  0.34340695     0.00500
C245        C  0.45764613  0.34440410  0.36702070    -0.08100
C246        C  0.46101232  0.36952786  0.39169207    -0.05500
C247        C  0.48936123  0.38953978  0.39230017     0.00500
C248        C  0.02684006  0.37701428  0.37561243    -0.08000
C249        C  0.06016254  0.39353853  0.38180078     0.62400
H250        H  0.04783456  0.34463607  0.33569474     0.13100
H251        H  0.44122877  0.37416809  0.41047626     0.13100
C252        C  0.42533238  0.32520062  0.36558734     0.62600
F253        F  0.08654143  0.37990748  0.36152036    -0.22600
F254        F  0.07009816  0.38836578  0.41458025    -0.19900
F255        F  0.05549055  0.42831772  0.37542918    -0.19600
F256        F  0.43329322  0.29068532  0.37167986    -0.19600
F257        F  0.41054278  0.32915534  0.33439416    -0.19900
F258        F  0.40121637  0.33740138  0.38894634    -0.22600
O259        O  0.98879149  0.40283161  0.94957444    -0.75000
O260        O  0.99389493  0.44460388  0.91039032    -0.53900
C261        C  0.99070062  0.41335446  0.91930053     0.78800
O262        O  0.40030885  0.00733874  0.56165768    -0.59600
O263        O  0.44316474  0.00278434  0.60059571    -0.52600
C264        C  0.41280787  0.50525974  0.59281106     0.70800
O265        O  0.40165826  0.00385035  0.94811084    -0.74100
O266        O  0.44469925  0.00463029  0.90953621    -0.54700
C267        C  0.41297303  0.00411415  0.91790791     0.76800
O268        O  0.99178527  0.40356110  0.56421786    -0.59300
O269        O  0.99459465  0.44685926  0.60212522    -0.52400
C270        C  0.49564573  0.41503025  0.59189569     0.73400
Zr271      Zr  0.99235272  0.42712974  0.00531146     2.54700
O272        O  0.43908098  0.39589006  0.00679611    -0.79800
O273        O  0.04001383  0.37964308  0.50858843    -0.93200
Zr274      Zr  0.42412964  0.00896486  0.00483554     2.64700
O275        O  0.37333336  0.47613789  0.00382425    -0.98200
O276        O  0.38554399  0.05989801  0.50602562    -0.80300
O277        O  0.45715623  0.46831123  0.97239904    -0.83600
O278        O  0.45916259  0.46785198  0.53789210    -2.18300
O279        O  0.09147663  0.48707607  0.56220914    -0.67000
O280        O  0.04925413  0.49351314  0.60134876    -0.51600
C281        C  0.08104147  0.48853145  0.59258036     0.71800
O282        O  0.50281047  0.09575325  0.94995082    -0.59900
O283        O  0.49937732  0.05367423  0.91084809    -0.51900
C284        C  0.00024523  0.08133736  0.91786179     0.73600
O285        O  0.49903235  0.09460578  0.56147220    -0.71300
O286        O  0.49803110  0.05184937  0.60026118    -0.50000
C287        C  0.49860090  0.08353631  0.59157978     0.75000
O288        O  0.09231888  0.48821539  0.94913630    -0.66600
O289        O  0.05019174  0.49260470  0.90976431    -0.53800
C290        C  0.08272778  0.98447796  0.92046109     0.73300
Zr291      Zr  0.06776069  0.49053141  0.50609710     2.77500
O292        O  0.11531072  0.02669121  0.00689763    -0.97400
O293        O  0.10743917  0.43823847  0.00416786    -0.78200
Zr294      Zr  0.50024353  0.07029812  0.50575842     2.70100
O295        O  0.04510276  0.11019895  0.50666617    -0.79500
O296        O  0.45468920  0.11736494  0.00381978    -0.98500
Zr297      Zr  0.99674278  0.99687016  0.94166591     2.21500
Zr298      Zr  0.49776031  0.49956121  0.56950760     2.11100
O299        O  0.03556538  0.02951562  0.53800355    -2.47200
O300        O  0.03439066  0.02967405  0.97279866    -0.79200
O301        O  0.03162521  0.45836566  0.53935625    -0.71400
O302        O  0.46174951  0.04065399  0.97265739    -2.32400
O303        O  0.03090956  0.45747650  0.97278450    -2.28600
O304        O  0.46172597  0.03961271  0.53793871    -0.73200
H305        H  0.44467208  0.45532294  0.55221345     0.78800
H306        H  0.44847735  0.05628792  0.95815233     0.79900
H307        H  0.05046028  0.04165627  0.55222589     0.82100
H308        H  0.04444305  0.44168553  0.95858327     0.79700
H309        H  0.39099847  0.07320665  0.02496184     0.42700
H310        H  0.44175055  0.11568550  0.52189612     0.41700
H311        H  0.06567197  0.09135152  0.99375806     0.41400
H312        H  0.11053450  0.04212841  0.52327462     0.39300
H313        H  0.09287697  0.41998176  0.50632957     0.42500
H314        H  0.04755135  0.38005078  0.98356630     0.37200
H315        H  0.42097541  0.41157709  0.99642135     0.43400
H316        H  0.37905631  0.45801838  0.52247665     0.39800
H317        H  0.13614022  0.00967999  0.51770813     0.44700
H318        H  0.04997656  0.38055081  0.53121942     0.43400
H319        H  0.35417403  0.49221354  0.01176646     0.43600
H320        H  0.47117864  0.13918858  0.51280250     0.43900
N321        N  0.49206127  0.24926228  0.70345634    -0.36300
N322        N  0.49703613  0.19653073  0.75482176    -0.56800
N323        N  0.49005869  0.25007412  0.80566331    -0.36300
N324        N  0.48863236  0.30271317  0.75439878    -0.56800
C325        C  0.49925625  0.22105079  0.68442190     0.27300
C326        C  0.49648014  0.27700861  0.68420757     0.27300
C327        C  0.49844969  0.22221042  0.82493689     0.27300
C328        C  0.49337046  0.27827098  0.82467656     0.27300
C329        C  0.49482678  0.17592082  0.72799058     0.35900
C330        C  0.49540725  0.17620801  0.78193476     0.35900
C331        C  0.48456040  0.32290864  0.72714368     0.35900
C332        C  0.48241381  0.32338817  0.78107503     0.35900
C333        C  0.50787515  0.23097680  0.65250538    -0.21600
C334        C  0.50620115  0.26625327  0.65238306    -0.21600
C335        C  0.50656441  0.23286743  0.85672605    -0.21600
C336        C  0.50350171  0.26815361  0.85652693    -0.21600
C337        C  0.49262699  0.14222823  0.73809891    -0.22600
C338        C  0.49317787  0.14238239  0.77225527    -0.22600
C339        C  0.47610888  0.35666939  0.73656506    -0.22600
C340        C  0.47470758  0.35695984  0.77072405    -0.22600
C341        C  0.49634432  0.18665735  0.69442342    -0.18000
C342        C  0.49003464  0.31179015  0.69389640    -0.18000
C343        C  0.48608253  0.31290121  0.81468615    -0.18000
C344        C  0.49705328  0.18740257  0.81535416    -0.18000
H345        H  0.51438372  0.21454312  0.63136035     0.14900
H346        H  0.51110121  0.28214401  0.63107543     0.14900
H347        H  0.51374660  0.21690544  0.87801921     0.14900
H348        H  0.50789846  0.28448879  0.87761995     0.14900
H349        H  0.49109498  0.11980662  0.72249734     0.13200
H350        H  0.49204113  0.12010659  0.78814344     0.13200
H351        H  0.47169251  0.37885284  0.72052765     0.13200
H352        H  0.46911472  0.37940048  0.78618500     0.13200
H353        H  0.48094818  0.24961128  0.72689758     0.26500
H354        H  0.47897757  0.24980412  0.78222540     0.26500
N355        N  0.24798160  0.48490474  0.70387781    -0.36300
N356        N  0.19634997  0.48254251  0.75524945    -0.56800
N357        N  0.24762241  0.49096262  0.80531855    -0.36300
N358        N  0.29971522  0.49351215  0.75426969    -0.56800
C359        C  0.21871772  0.49187627  0.68623615     0.27300
C360        C  0.27415426  0.49562577  0.68546568     0.27300
C361        C  0.21844132  0.49812317  0.82310178     0.27300
C362        C  0.27379478  0.50291159  0.82279577     0.27300
C363        C  0.17801724  0.47341808  0.72871440     0.35900
C364        C  0.17798816  0.47563513  0.78255141     0.35900
C365        C  0.32026761  0.48704558  0.72754500     0.35900
C366        C  0.32019779  0.49027787  0.78138487     0.35900
C367        C  0.22645598  0.50717498  0.65622979    -0.21600
C368        C  0.26151598  0.50940068  0.65569117    -0.21600
C369        C  0.22618688  0.51494798  0.85225834    -0.21600
C370        C  0.26120062  0.51782720  0.85212906    -0.21600
C371        C  0.14797464  0.45991504  0.73914145    -0.22600
C372        C  0.14798141  0.46126390  0.77340884    -0.22600
C373        C  0.35401206  0.47975312  0.73767103    -0.22600
C374        C  0.35396998  0.48181472  0.77187193    -0.22600
C375        C  0.18564904  0.48276558  0.69576040    -0.18000
C376        C  0.30929280  0.49119691  0.69418882    -0.18000
C377        C  0.30898991  0.49745185  0.81429164    -0.18000
C378        C  0.18563270  0.48742342  0.81471387    -0.18000
H379        H  0.20875763  0.51551222  0.63656950     0.14900
H380        H  0.27609417  0.51968330  0.63557285     0.14900
H381        H  0.20857928  0.52355869  0.87193205     0.14900
H382        H  0.27583267  0.52896487  0.87168755     0.14900
H383        H  0.12746390  0.45164598  0.72367260     0.13200
H384        H  0.12746287  0.45422824  0.78959704     0.13200
H385        H  0.37636902  0.47420767  0.72201576     0.13200
H386        H  0.37628306  0.47809197  0.78785402     0.13200
H387        H  0.25055845  0.47019271  0.72549149     0.26500
H388        H  0.25030592  0.47484160  0.78470913     0.26500
C389        C  0.16224334  0.46236427  0.64281931    -0.05400
C390        C  0.15781279  0.48440179  0.67028406     0.00500
C391        C  0.12781244  0.50733058  0.67239525    -0.08100
C392        C  0.10228481  0.50545413  0.64795873    -0.05500
C393        C  0.10762407  0.48514250  0.61925389     0.00500
C394        C  0.13846259  0.46324698  0.61647201    -0.08000
C395        C  0.14684261  0.44094456  0.58604842     0.62400
H396        H  0.18547257  0.44528932  0.64165659     0.13100
H397        H  0.07868377  0.52177182  0.65043926     0.13100
C398        C  0.12186069  0.53525669  0.69863337     0.62600
F399        F  0.17544470  0.41825596  0.59109885    -0.22600
F400        F  0.15383659  0.46146908  0.55920335    -0.19900
F401        F  0.12207872  0.91902754  0.58350259    -0.19600
F402        F  0.11191382  0.56611613  0.68319052    -0.19600
F403        F  0.14667140  0.04417020  0.71776484    -0.19900
F404        F  0.09256834  0.02820380  0.71972285    -0.22600
C405        C  0.10226697  0.00027476  0.86441970    -0.05400
C406        C  0.10857324  0.48730795  0.89209037     0.00500
C407        C  0.13943612  0.46546706  0.89396524    -0.08100
C408        C  0.16343659  0.46623800  0.86785410    -0.05500
C409        C  0.15832064  0.48871520  0.84076028     0.00500
C410        C  0.12768797  0.51085211  0.83907266    -0.08000
C411        C  0.11811825  0.02979020  0.81251736     0.62400
H412        H  0.07748271  0.01451276  0.86154635     0.13100
H413        H  0.18695804  0.44955730  0.86857863     0.13100
C414        C  0.14716462  0.44103464  0.92293848     0.62600
F415        F  0.11218924  0.56942138  0.82719297    -0.22600
F416        F  0.09134638  0.52936717  0.79434258    -0.19900
F417        F  0.14560960  0.03680067  0.79268245    -0.19600
F418        F  0.11937974  0.42200802  0.92886001    -0.19600
F419        F  0.15595361  0.95836786  0.95387767    -0.19900
F420        F  0.17541499  0.41823922  0.91665244    -0.22600
C421        C  0.35352548  0.52406066  0.66703921    -0.05400
C422        C  0.33575024  0.49419642  0.66777411     0.00500
C423        C  0.34402906  0.46766743  0.64440951    -0.08100
C424        C  0.36924185  0.47258572  0.62015577    -0.05500
C425        C  0.38687551  0.50252626  0.61931163     0.00500
C426        C  0.37937633  0.52855287  0.64331149    -0.06900
C427        C  0.39579831  0.06539874  0.63705640     0.62400
H428        H  0.34696285  0.54379489  0.68541665     0.13100
H429        H  0.37567806  0.45286918  0.60171227     0.13100
C430        C  0.32685850  0.43411203  0.64552659     0.62600
F431        F  0.38356824  0.09019965  0.65964531    -0.22600
F432        F  0.39126093  0.07873837  0.60529467    -0.19900
F433        F  0.43290942  0.55289062  0.64830606    -0.19600
F434        F  0.28919084  0.94627379  0.63850724    -0.19600
F435        F  0.32987387  0.42004803  0.67711211    -0.19900
F436        F  0.34171723  0.41030906  0.62322181    -0.22600
C437        C  0.35494087  0.02775052  0.84405106    -0.05400
C438        C  0.33523380  0.49951268  0.84103081     0.00500
C439        C  0.34348654  0.47168787  0.86292860    -0.08100
C440        C  0.36832983  0.47524343  0.88781995    -0.05500
C441        C  0.38568818  0.50520215  0.89074237     0.00500
C442        C  0.38061915  0.03040938  0.86832211    -0.08000
C443        C  0.39948545  0.06281284  0.87065732     0.62400
H444        H  0.34878190  0.04864635  0.82679724     0.13100
H445        H  0.37485985  0.45434919  0.90498960     0.13100
C446        C  0.32671474  0.43810043  0.85933068     0.62600
F447        F  0.38750158  0.08711978  0.84750603    -0.22600
F448        F  0.43418476  0.05519056  0.86483840    -0.19900
F449        F  0.39492402  0.07693375  0.90209978    -0.19600
F450        F  0.33933288  0.41387895  0.88230192    -0.19600
F451        F  0.33303419  0.42481713  0.82778820    -0.19900
F452        F  0.29161842  0.44352011  0.86409671    -0.22600
C453        C  0.46715318  0.12608739  0.62784122    -0.05400
C454        C  0.49867792  0.10952257  0.61802426     0.00500
C455        C  0.03160756  0.12268196  0.62951883    -0.08100
C456        C  0.02900288  0.14705092  0.65534466    -0.05500
C457        C  0.49626224  0.16003501  0.66799613     0.00500
C458        C  0.46537660  0.15149932  0.65268787    -0.08000
C459        C  0.43084859  0.16918897  0.66266699     0.62400
H460        H  0.44396887  0.11910129  0.61565548     0.13100
H461        H  0.05195721  0.15621137  0.66627474     0.13100
C462        C  0.06643050  0.11130064  0.61471937     0.62600
F463        F  0.40422476  0.15805146  0.64376008    -0.22600
F464        F  0.43115753  0.20426565  0.65826287    -0.19900
F465        F  0.42427761  0.16241141  0.69576922    -0.19600
F466        F  0.06764607  0.12244671  0.58207165    -0.19600
F467        F  0.07164785  0.07595279  0.61530797    -0.19900
F468        F  0.09300889  0.12469509  0.63202249    -0.22600
C469        C  0.02988680  0.14309455  0.85293542    -0.05400
C470        C  0.49778337  0.16094016  0.84213783     0.00500
C471        C  0.46707386  0.14996793  0.85594950    -0.08100
C472        C  0.46946051  0.12499108  0.88124548    -0.05500
C473        C  0.50135772  0.11131199  0.89323809     0.00500
C474        C  0.03158258  0.11862197  0.87870675    -0.08000
C475        C  0.06597563  0.10598200  0.89356804     0.62400
H476        H  0.05322195  0.15213381  0.84264516     0.13100
H477        H  0.44638090  0.11615829  0.89217734     0.13100
C478        C  0.43203416  0.16466580  0.84395841     0.62600
F479        F  0.09298181  0.12123251  0.87871728    -0.22600
F480        F  0.07125766  0.07092583  0.88947440    -0.19900
F481        F  0.06623144  0.11347258  0.92721634    -0.19600
F482        F  0.42749895  0.15585567  0.81100207    -0.19600
F483        F  0.42954632  0.20004159  0.84680974    -0.19900
F484        F  0.40559939  0.15242273  0.86238338    -0.22600
C485        C  0.01520238  0.35908489  0.66976275    -0.05400
C486        C  0.49029592  0.33848183  0.66760721     0.00500
C487        C  0.45997954  0.35239905  0.65145910    -0.08100
C488        C  0.46295620  0.37741303  0.62676372    -0.05500
C489        C  0.49478090  0.38932197  0.61850732     0.00500
C490        C  0.01800365  0.38447293  0.64531441    -0.08000
C491        C  0.04991189  0.40429350  0.64400766     0.62400
H492        H  0.03565575  0.35383338  0.68772024     0.13100
H493        H  0.44005873  0.38806521  0.61395824     0.13100
C494        C  0.42394377  0.34259430  0.65932543     0.62600
F495        F  0.07424605  0.39246513  0.66724222    -0.22600
F496        F  0.04117964  0.43860326  0.65049097    -0.19900
F497        F  0.06469215  0.40089264  0.61276732    -0.19600
F498        F  0.40418574  0.37154536  0.66985140    -0.19600
F499        F  0.42291612  0.31784043  0.68379365    -0.19900
F500        F  0.40940842  0.33022941  0.63077490    -0.22600
C501        C  0.01631126  0.35238567  0.84849565    -0.05400
C502        C  0.48613268  0.34003277  0.84080643     0.00500
C503        C  0.45676179  0.34989141  0.86039428    -0.08100
C504        C  0.45949213  0.37456733  0.88558593    -0.05500
C505        C  0.49041014  0.38949591  0.89143406     0.00500
C506        C  0.01856673  0.37822465  0.87250896    -0.08000
C507        C  0.05189225  0.39527615  0.87678084     0.62400
H508        H  0.03806625  0.34510512  0.83251874     0.13100
H509        H  0.43742143  0.38261130  0.90088592     0.13100
C510        C  0.42268316  0.33473586  0.85445142     0.62600
F511        F  0.07798101  0.38021587  0.85701532    -0.22600
F512        F  0.06239321  0.39250662  0.90961149    -0.19900
F513        F  0.04693330  0.42954770  0.86813220    -0.19600
F514        F  0.42643877  0.29952512  0.85861426    -0.19600
F515        F  0.41157935  0.34222908  0.82239190    -0.19900
F516        F  0.39754229  0.34786338  0.87637294    -0.22600
O517        O  0.99001219  0.90346871  0.44959027    -0.75000
O518        O  0.99481764  0.94568186  0.41075472    -0.53900
C519        C  0.99180661  0.91438032  0.41935074     0.78800
O520        O  0.39928129  0.50902276  0.06098977    -0.59600
O521        O  0.44200776  0.50374069  0.10004055    -0.52600
C522        C  0.41037461  0.00611111  0.09171180     0.70800
O523        O  0.40094946  0.50357689  0.45011294    -0.74100
O524        O  0.44330572  0.50303394  0.41072229    -0.54700
C525        C  0.41163924  0.50294684  0.41969929     0.76800
O526        O  0.99520258  0.90467325  0.06462863    -0.59300
O527        O  0.99742767  0.94816818  0.10251845    -0.52400
C528        C  0.49230095  0.91415371  0.09058509     0.73400
Zr529      Zr  0.99211718  0.92671944  0.50628672     2.54700
O530        O  0.44441964  0.89152685  0.50518493    -0.79800
O531        O  0.03335347  0.87622195  0.00603859    -0.93200
Zr532      Zr  0.42519502  0.50885694  0.50598059     2.64700
O533        O  0.37733418  0.97073208  0.50277918    -0.98200
O534        O  0.38742455  0.56305769  0.00221797    -0.80300
O535        O  0.45843553  0.96782675  0.47251817    -0.83600
O536        O  0.45754622  0.96778966  0.03697366    -2.18300
O537        O  0.09191555  0.98771032  0.06225443    -0.67000
O538        O  0.04965753  0.99605920  0.10115767    -0.51600
C539        C  0.08148631  0.99065183  0.09253671     0.71800
O540        O  0.50378112  0.59568812  0.44998936    -0.59900
O541        O  0.49921446  0.55364390  0.41098146    -0.51900
C542        C  0.99897242  0.58224713  0.41882953     0.73600
O543        O  0.50193575  0.59399083  0.06140418    -0.71300
O544        O  0.49814787  0.55165720  0.10023108    -0.50000
C545        C  0.50046383  0.58310075  0.09154398     0.75000
O546        O  0.09392244  0.98624961  0.45092865    -0.66600
O547        O  0.05153256  0.99146072  0.41180939    -0.53800
C548        C  0.08196954  0.48878672  0.41960489     0.73300
Zr549      Zr  0.06790109  0.98962983  0.00632486     2.77500
O550        O  0.11438153  0.52847071  0.50616663    -0.97400
O551        O  0.10646182  0.93486382  0.50584670    -0.78200
Zr552      Zr  0.50074804  0.56999416  0.00548129     2.70100
O553        O  0.04391974  0.60962812  0.00495733    -0.79500
O554        O  0.45479852  0.61657137  0.50624814    -0.98500
Zr555      Zr  0.99639025  0.49708208  0.44166200     2.21500
Zr556      Zr  0.49568473  0.99936678  0.06941935     2.11100
O557        O  0.03417941  0.53070094  0.03715520    -2.47200
O558        O  0.03328712  0.53024724  0.47325028    -0.79200
O559        O  0.03065917  0.95878586  0.03944585    -0.71400
O560        O  0.46218877  0.54047553  0.47298077    -2.32400
O561        O  0.03130952  0.95658852  0.47407220    -2.28600
O562        O  0.46135135  0.54028627  0.03757247    -0.73200
H563        H  0.44275347  0.95532827  0.05100264     0.78800
H564        H  0.44865880  0.55610958  0.45861508     0.79900
H565        H  0.04886172  0.54304727  0.05141511     0.82100
H566        H  0.04464513  0.94064828  0.45985020     0.79700
H567        H  0.36677794  0.55728763  0.50252976     0.42700
H568        H  0.44546029  0.61721011  0.02678040     0.41700
H569        H  0.06256152  0.59515564  0.49644751     0.41400
H570        H  0.10929634  0.54285992  0.02563372     0.39300
H571        H  0.09294768  0.91957672  0.99742938     0.42500
H572        H  0.01724938  0.85650130  0.51189840     0.37200
H573        H  0.43057239  0.89896806  0.48544064     0.43400
H574        H  0.37686674  0.95886252  0.02009762     0.39800
H575        H  0.13465625  0.51392911  0.01039845     0.44700
H576        H  0.05018098  0.88000091  0.02385258     0.43400
H577        H  0.35651743  0.98588328  0.50813224     0.43600
H578        H  0.47216921  0.63929266  0.00937556     0.43900
N579        N  0.48864281  0.74921125  0.20316903    -0.36300
N580        N  0.49637967  0.69648299  0.25475038    -0.56800
N581        N  0.49008031  0.75001645  0.30574059    -0.36300
N582        N  0.48646241  0.80270183  0.25411240    -0.56800
C583        C  0.49627965  0.72108997  0.18410595     0.27300
C584        C  0.49215213  0.77702163  0.18374192     0.27300
C585        C  0.49764634  0.72216217  0.32523909     0.27300
C586        C  0.49226577  0.77824495  0.32495255     0.27300
C587        C  0.49386790  0.67586286  0.22794416     0.35900
C588        C  0.49523468  0.67615549  0.28194841     0.35900
C589        C  0.48263714  0.82306831  0.22692129     0.35900
C590        C  0.48272635  0.82357570  0.28095311     0.35900
C591        C  0.50395405  0.73115024  0.15198763    -0.21600
C592        C  0.50145689  0.76638712  0.15177627    -0.21600
C593        C  0.50405218  0.73284893  0.35743805    -0.21600
C594        C  0.50069383  0.76813132  0.35725429    -0.21600
C595        C  0.49182821  0.64218430  0.23813808    -0.22600
C596        C  0.49284562  0.64234162  0.27229696    -0.22600
C597        C  0.47695094  0.85712236  0.23653837    -0.22600
C598        C  0.47704573  0.85744778  0.27071412    -0.22600
C599        C  0.49494214  0.68655482  0.19429852    -0.18000
C600        C  0.48609724  0.81180320  0.19348728    -0.18000
C601        C  0.48603546  0.81292905  0.31461306    -0.18000
C602        C  0.49700193  0.68732560  0.31544001    -0.18000
H603        H  0.51055272  0.71482327  0.13079146     0.14900
H604        H  0.50578455  0.78234267  0.13036543     0.14900
H605        H  0.51020279  0.71691343  0.37900192     0.14900
H606        H  0.50388709  0.78445022  0.37863193     0.14900
H607        H  0.48994393  0.61978433  0.22258280     0.13200
H608        H  0.49175724  0.62008275  0.28821374     0.13200
H609        H  0.47346514  0.87947213  0.22059437     0.13200
H610        H  0.47361502  0.88010358  0.28624432     0.13200
H611        H  0.47810988  0.74937256  0.22685809     0.26500
H612        H  0.48063477  0.74970096  0.28170457     0.26500
N613        N  0.24699199  0.99399477  0.20547593    -0.36300
N614        N  0.19536500  0.98865039  0.25613861    -0.56800
N615        N  0.24693093  0.99402226  0.30686845    -0.36300
N616        N  0.29880938  0.00069107  0.25616193    -0.56800
C617        C  0.21780370  0.00037972  0.18757092     0.27300
C618        C  0.27313250  0.00493852  0.18720811     0.27300
C619        C  0.21761084  0.00019642  0.32463666     0.27300
C620        C  0.27278513  0.00570988  0.32495345     0.27300
C621        C  0.17777207  0.97934212  0.22919029     0.35900
C622        C  0.17801313  0.97867067  0.28300421     0.35900
C623        C  0.31945091  0.99602512  0.22923005     0.35900
C624        C  0.31930763  0.99624584  0.28317378     0.35900
C625        C  0.22554106  0.01563078  0.15755815    -0.21600
C626        C  0.26056103  0.01821315  0.15720895    -0.21600
C627        C  0.22489954  0.01619516  0.35436819    -0.21600
C628        C  0.25983871  0.01956873  0.35461470    -0.21600
C629        C  0.14919856  0.96281894  0.23886327    -0.22600
C630        C  0.14956493  0.96203397  0.27317018    -0.22600
C631        C  0.35329579  0.98896968  0.23913271    -0.22600
C632        C  0.35319573  0.98899553  0.27338702    -0.22600
C633        C  0.18502969  0.99010960  0.19662244    -0.18000
C634        C  0.30826165  0.00048831  0.19595007    -0.18000
C635        C  0.30798813  0.00125714  0.31638447    -0.18000
C636        C  0.18520600  0.98902706  0.31567338    -0.18000
H637        H  0.20792630  0.02337794  0.13764243     0.14900
H638        H  0.27515628  0.02835790  0.13703334     0.14900
H639        H  0.20703738  0.02395049  0.37411526     0.14900
H640        H  0.27418902  0.03038268  0.37456882     0.14900
H641        H  0.12958833  0.95348264  0.22293940     0.13200
H642        H  0.13015988  0.95217410  0.28904598     0.13200
H643        H  0.37571454  0.98461381  0.22333195     0.13200
H644        H  0.37554019  0.98466705  0.28924772     0.13200
H645        H  0.24968392  0.97909631  0.22693986     0.26500
H646        H  0.24990725  0.97868603  0.28571011     0.26500
C647        C  0.16296271  0.96815643  0.14382668    -0.05400
C648        C  0.15755729  0.99063337  0.17083137     0.00500
C649        C  0.12699363  0.01284605  0.17216524    -0.08100
C650        C  0.10212770  0.01014821  0.14721157    -0.05500
C651        C  0.10809873  0.98885060  0.11926002     0.00500
C652        C  0.13944514  0.96755658  0.11734027    -0.08000
C653        C  0.14857156  0.94408755  0.08788790     0.62400
H654        H  0.18661827  0.95167409  0.14328630     0.13100
H655        H  0.07835710  0.02639567  0.14880590     0.13100
C656        C  0.11950993  0.04078378  0.19810980     0.62600
F657        F  0.17788745  0.92260220  0.09376288    -0.22600
F658        F  0.15469176  0.96347052  0.05999976    -0.19900
F659        F  0.12283880  0.41927079  0.08058604    -0.19600
F660        F  0.11134363  0.07175723  0.18214614    -0.19600
F661        F  0.14727955  0.54087069  0.21745450    -0.19900
F662        F  0.09347975  0.52394623  0.21861549    -0.22600
C663        C  0.10173394  0.50468482  0.36326761    -0.05400
C664        C  0.10955123  0.98613517  0.39374620     0.00500
C665        C  0.13984497  0.96340460  0.39422935    -0.08100
C666        C  0.16318869  0.96447545  0.36758212    -0.05500
C667        C  0.15798838  0.98828402  0.34159018     0.00500
C668        C  0.12828274  0.01161996  0.34158298    -0.08000
C669        C  0.11814760  0.53250869  0.31023895     0.62400
H670        H  0.07708979  0.51920492  0.36040254     0.13100
H671        H  0.18640110  0.94733044  0.36722021     0.13100
C672        C  0.14772643  0.93801628  0.42238710     0.62600
F673        F  0.09552978  0.06335273  0.32427209    -0.22600
F674        F  0.11612861  0.02677139  0.28511991    -0.19900
F675        F  0.14673500  0.54047464  0.29235567    -0.19600
F676        F  0.11966040  0.91941513  0.42834726    -0.19600
F677        F  0.15548362  0.46751636  0.45363145    -0.19900
F678        F  0.17544012  0.91493013  0.41495750    -0.22600
C679        C  0.34863970  0.03254601  0.16229917    -0.05400
C680        C  0.33443419  0.00140682  0.16900989     0.00500
C681        C  0.34536952  0.97168724  0.15052018    -0.08100
C682        C  0.36990634  0.97436128  0.12505298    -0.05500
C683        C  0.38423634  0.00549881  0.11839595     0.00500
C684        C  0.37380721  0.03498762  0.13742024    -0.06900
C685        C  0.39296030  0.56601650  0.13670821     0.62400
H686        H  0.34012867  0.05479640  0.17709161     0.13100
H687        H  0.37849012  0.95202388  0.11040214     0.13100
C688        C  0.33144878  0.93732334  0.15820505     0.62600
F689        F  0.37961180  0.59043212  0.15916569    -0.22600
F690        F  0.38768689  0.57898562  0.10487749    -0.19900
F691        F  0.42439141  0.06420132  0.14006069    -0.19600
F692        F  0.28990519  0.44420713  0.14324158    -0.19600
F693        F  0.33808873  0.92858318  0.19109075    -0.19900
F694        F  0.34642340  0.91133099  0.13834486    -0.22600
C695        C  0.35570366  0.52188296  0.34318838    -0.05400
C696        C  0.33422196  0.00263590  0.34317202     0.00500
C697        C  0.34196349  0.97464182  0.36504692    -0.08100
C698        C  0.36739998  0.97745882  0.38943953    -0.05500
C699        C  0.38589047  0.00668497  0.39176105     0.00500
C700        C  0.38070942  0.52601691  0.36778516    -0.08000
C701        C  0.40104130  0.55755334  0.36730166     0.62400
H702        H  0.35142427  0.54090862  0.32369110     0.13100
H703        H  0.37331840  0.95663423  0.40685087     0.13100
C704        C  0.32381679  0.94176742  0.36236243     0.62600
F705        F  0.38925500  0.58075648  0.34303824    -0.22600
F706        F  0.43527672  0.54804067  0.36084567    -0.19900
F707        F  0.39809123  0.57393018  0.39783220    -0.19600
F708        F  0.33879851  0.91615546  0.38268802    -0.19600
F709        F  0.32536768  0.92979366  0.32993279    -0.19900
F710        F  0.28980240  0.94794017  0.37173154    -0.22600
C711        C  0.46813929  0.62401206  0.12844481    -0.05400
C712        C  0.50013913  0.60909655  0.11801468     0.00500
C713        C  0.03005055  0.62015608  0.13063647    -0.08100
C714        C  0.02889706  0.64453434  0.15647351    -0.05500
C715        C  0.49594204  0.65976190  0.16791382     0.00500
C716        C  0.46548776  0.64983691  0.15282750    -0.08000
C717        C  0.43058975  0.66748860  0.16152242     0.62400
H718        H  0.44525950  0.61608607  0.11638667     0.13100
H719        H  0.05245578  0.65195940  0.16766692     0.13100
C720        C  0.06435273  0.60598471  0.11659832     0.62600
F721        F  0.40425479  0.65337276  0.14453245    -0.22600
F722        F  0.42992548  0.70183295  0.15304141    -0.19900
F723        F  0.42437556  0.66462027  0.19527539    -0.19600
F724        F  0.06751459  0.61740107  0.08422623    -0.19600
F725        F  0.06632102  0.57058588  0.11657895    -0.19900
F726        F  0.09169914  0.61644947  0.13491711    -0.22600
C727        C  0.02770848  0.64492579  0.35401409    -0.05400
C728        C  0.49806905  0.66078896  0.34220449     0.00500
C729        C  0.46751334  0.64949803  0.35602255    -0.08100
C730        C  0.47012726  0.62416251  0.38093467    -0.05500
C731        C  0.50207067  0.61114015  0.39329415     0.00500
C732        C  0.02979740  0.62046101  0.37982912    -0.08000
C733        C  0.06433948  0.60916861  0.39519745     0.62400
H734        H  0.05083675  0.65471956  0.34405507     0.13100
H735        H  0.44714452  0.61483085  0.39160013     0.13100
C736        C  0.43237786  0.66483426  0.34501339     0.62600
F737        F  0.09122337  0.62268907  0.37840488    -0.22600
F738        F  0.06969385  0.57382798  0.39452084    -0.19900
F739        F  0.06483824  0.62019699  0.42790052    -0.19600
F740        F  0.42766103  0.65858301  0.31152101    -0.19600
F741        F  0.42987531  0.69989496  0.35043295    -0.19900
F742        F  0.40608376  0.65108559  0.36246664    -0.22600
C743        C  0.02518807  0.85545890  0.16487099    -0.05400
C744        C  0.48667315  0.83834689  0.16699728     0.00500
C745        C  0.45700275  0.84938758  0.14843287    -0.08100
C746        C  0.45976938  0.87461358  0.12377356    -0.05500
C747        C  0.49126841  0.88817012  0.11698727     0.00500
C748        C  0.02680415  0.88129760  0.14061179    -0.08000
C749        C  0.06020551  0.89747959  0.13419248     0.62400
H750        H  0.04768357  0.84748433  0.17957903     0.13100
H751        H  0.43740408  0.88390315  0.10946338     0.13100
C752        C  0.42281558  0.83441290  0.15461848     0.62600
F753        F  0.08707737  0.88234383  0.15291140    -0.22600
F754        F  0.05632020  0.93198996  0.14211451    -0.19900
F755        F  0.06872685  0.89371590  0.10091218    -0.19600
F756        F  0.39724155  0.84881350  0.13389794    -0.19600
F757        F  0.41263750  0.84039325  0.18723244    -0.19900
F758        F  0.42603009  0.79941588  0.14885895    -0.22600
C759        C  0.01755378  0.85115137  0.35046221    -0.05400
C760        C  0.48642705  0.84008694  0.34065004     0.00500
C761        C  0.45636623  0.85274804  0.35788360    -0.08100
C762        C  0.45925842  0.87759589  0.38293835    -0.05500
C763        C  0.49103351  0.89010844  0.39069772     0.00500
C764        C  0.02021822  0.87694362  0.37445413    -0.08000
C765        C  0.05465772  0.89112553  0.38096448     0.62400
H766        H  0.04009285  0.84110774  0.33678446     0.13100
H767        H  0.43670862  0.88758513  0.39664082     0.13100
C768        C  0.42155332  0.84010895  0.34966201     0.62600
F769        F  0.08059018  0.87517912  0.36157021    -0.22600
F770        F  0.06340678  0.88616561  0.41405664    -0.19900
F771        F  0.05260784  0.92582853  0.37374945    -0.19600
F772        F  0.42239417  0.80500731  0.35446115    -0.19600
F773        F  0.41340260  0.84753651  0.31680305    -0.19900
F774        F  0.39571114  0.85550241  0.36953027    -0.22600
O775        O  0.99119482  0.90137817  0.95212700    -0.75000
O776        O  0.99489204  0.94287449  0.91236293    -0.53900
C777        C  0.99273780  0.91162866  0.92168737     0.78800
O778        O  0.40169532  0.50730297  0.56259997    -0.59600
O779        O  0.44467359  0.50338792  0.60135377    -0.52600
C780        C  0.41129385  0.00540374  0.59193263     0.70800
O781        O  0.40038223  0.50685775  0.94788691    -0.74100
O782        O  0.44343199  0.50529500  0.90913866    -0.54700
C783        C  0.41154818  0.50636648  0.91761388     0.76800
O784        O  0.99078525  0.90332174  0.56306128    -0.59300
O785        O  0.99482148  0.94597716  0.60152974    -0.52400
C786        C  0.49503103  0.91379985  0.59147181     0.73400
Zr787      Zr  0.99288280  0.92690501  0.00767053     2.54700
O788        O  0.44546902  0.89021566  0.00446447    -0.79800
O789        O  0.03163592  0.87528523  0.50561847    -0.93200
Zr790      Zr  0.42362514  0.50942647  0.00457903     2.64700
O791        O  0.37251236  0.97765787  0.00372377    -0.98200
O792        O  0.39081652  0.56357670  0.50417069    -0.80300
O793        O  0.45829668  0.96846114  0.97254720    -0.83600
O794        O  0.45823635  0.96697070  0.53725053    -2.18300
O795        O  0.09291037  0.98421847  0.56280081    -0.67000
O796        O  0.05018791  0.99184704  0.60135057    -0.51600
C797        C  0.08207441  0.98650761  0.59304573     0.71800
O798        O  0.50308260  0.59498364  0.95007385    -0.59900
O799        O  0.50042961  0.55299105  0.91072171    -0.51900
C800        C  0.00199007  0.58304895  0.91906648     0.73600
O801        O  0.50436248  0.59514849  0.56094232    -0.71300
O802        O  0.49963272  0.55315375  0.59997327    -0.50000
C803        C  0.50278921  0.58443950  0.59114572     0.75000
O804        O  0.09317723  0.98453789  0.95081551    -0.66600
O805        O  0.05090389  0.98856395  0.91163608    -0.53800
C806        C  0.08197631  0.48921688  0.91871684     0.73300
Zr807      Zr  0.06891981  0.98766018  0.50659200     2.77500
O808        O  0.11349412  0.52869044  0.00537761    -0.97400
O809        O  0.10599926  0.93724589  0.00823308    -0.78200
Zr810      Zr  0.50079157  0.57070804  0.50537046     2.70100
O811        O  0.04203068  0.60899192  0.50490857    -0.79500
O812        O  0.45848050  0.61930975  0.00578051    -0.98500
Zr813      Zr  0.99642329  0.49827154  0.94054663     2.21500
Zr814      Zr  0.49669215  0.99847467  0.56922716     2.11100
O815        O  0.03310343  0.53137560  0.53759302    -2.47200
O816        O  0.03409622  0.53011002  0.97266253    -0.79200
O817        O  0.03086837  0.95673125  0.53889609    -0.71400
O818        O  0.46181643  0.54063345  0.97262780    -2.32400
O819        O  0.03112570  0.95689999  0.97472472    -2.28600
O820        O  0.46254402  0.54055887  0.53842514    -0.73200
H821        H  0.44365738  0.95441179  0.55145606     0.78800
H822        H  0.44874696  0.55658030  0.95820000     0.79900
H823        H  0.04751481  0.54425130  0.55165079     0.82100
H824        H  0.04464299  0.94078102  0.96086173     0.79700
H825        H  0.38453967  0.57033809  0.02573714     0.42700
H826        H  0.44444754  0.61530960  0.52871286     0.41700
H827        H  0.06554087  0.59467272  0.00665416     0.41400
H828        H  0.11064354  0.54263082  0.52648630     0.39300
H829        H  0.09371256  0.91816583  0.51846604     0.42500
H830        H  0.02014332  0.85740233  0.01451259     0.37200
H831        H  0.42438705  0.90599554  0.00303950     0.43400
H832        H  0.38068792  0.95537645  0.52232445     0.39800
H833        H  0.13524121  0.51318740  0.51102045     0.44700
H834        H  0.04681496  0.87777227  0.52507332     0.43400
H835        H  0.35434448  0.99336277  0.01401137     0.43600
H836        H  0.46682583  0.63796394  0.50655551     0.43900
N837        N  0.49561914  0.74819947  0.70469666    -0.36300
N838        N  0.50306808  0.69578589  0.75594576    -0.56800
N839        N  0.49404115  0.74926379  0.80642144    -0.36300
N840        N  0.48924868  0.80155566  0.75524811    -0.56800
C841        C  0.50500339  0.72028392  0.68590239     0.27300
C842        C  0.49942054  0.77626016  0.68565793     0.27300
C843        C  0.50529538  0.72184624  0.82512510     0.27300
C844        C  0.49835122  0.77773600  0.82469026     0.27300
C845        C  0.50137657  0.67496745  0.72922926     0.35900
C846        C  0.50106873  0.67561622  0.78310150     0.35900
C847        C  0.48264769  0.82124316  0.72799172     0.35900
C848        C  0.48119240  0.82168084  0.78193847     0.35900
C849        C  0.51446101  0.73072634  0.65439271    -0.21600
C850        C  0.51124766  0.76601427  0.65434245    -0.21600
C851        C  0.51676160  0.73298466  0.85564286    -0.21600
C852        C  0.51264737  0.76827846  0.85526443    -0.21600
C853        C  0.49943770  0.64126730  0.73947798    -0.22600
C854        C  0.49915110  0.64169316  0.77363371    -0.22600
C855        C  0.47038854  0.85409558  0.73740155    -0.22600
C856        C  0.46945601  0.85436795  0.77161824    -0.22600
C857        C  0.50293331  0.68569073  0.69568670    -0.18000
C858        C  0.49000537  0.81073677  0.69487655    -0.18000
C859        C  0.48758919  0.81182929  0.81536367    -0.18000
C860        C  0.50286285  0.68707853  0.81634378    -0.18000
H861        H  0.52253317  0.71469551  0.63340613     0.14900
H862        H  0.51628483  0.78224440  0.63332312     0.14900
H863        H  0.52681596  0.71734673  0.87619315     0.14900
H864        H  0.51884060  0.78504793  0.87547769     0.14900
H865        H  0.49844162  0.61870465  0.72397226     0.13200
H866        H  0.49798560  0.61951956  0.78965462     0.13200
H867        H  0.46341062  0.87575883  0.72130777     0.13200
H868        H  0.46177124  0.87630130  0.78712989     0.13200
H869        H  0.48330731  0.74794540  0.72760384     0.26500
H870        H  0.48012390  0.74834259  0.78441296     0.26500
N871        N  0.24655135  0.99231758  0.70550364    -0.36300
N872        N  0.19625981  0.98422601  0.75714928    -0.56800
N873        N  0.24859687  0.98930671  0.80703678    -0.36300
N874        N  0.29927998  0.99869280  0.75517273    -0.56800
C875        C  0.21691597  0.99855445  0.68828564     0.27300
C876        C  0.27215767  0.00365135  0.68672687     0.27300
C877        C  0.21969096  0.99433019  0.82570461     0.27300
C878        C  0.27479624  0.00067031  0.82488489     0.27300
C879        C  0.17762470  0.97650027  0.73033497     0.35900
C880        C  0.17935355  0.97369090  0.78409971     0.35900
C881        C  0.31934094  0.99447430  0.72775646     0.35900
C882        C  0.32036115  0.99354799  0.78170348     0.35900
C883        C  0.22382419  0.01414891  0.65820497    -0.21600
C884        C  0.25877144  0.01715658  0.65713944    -0.21600
C885        C  0.22769992  0.00916499  0.85584609    -0.21600
C886        C  0.26255552  0.01297011  0.85539647    -0.21600
C887        C  0.14881507  0.96043467  0.74015162    -0.22600
C888        C  0.15003379  0.95843303  0.77435698    -0.22600
C889        C  0.35335367  0.98698295  0.73689563    -0.22600
C890        C  0.35400873  0.98642541  0.77112827    -0.22600
C891        C  0.18447347  0.98773152  0.69780445    -0.18000
C892        C  0.30750696  0.99944678  0.69470527    -0.18000
C893        C  0.30979286  0.99731838  0.81528391    -0.18000
C894        C  0.18693316  0.98366857  0.81686942    -0.18000
H895        H  0.20569905  0.02179987  0.63867890     0.14900
H896        H  0.27281821  0.02755901  0.63671314     0.14900
H897        H  0.21040884  0.01594875  0.87631233     0.14900
H898        H  0.27732168  0.02309484  0.87543024     0.14900
H899        H  0.12847056  0.95221705  0.72444416     0.13200
H900        H  0.13064257  0.94864005  0.79029123     0.13200
H901        H  0.37539501  0.98260451  0.72061198     0.13200
H902        H  0.37666258  0.98151096  0.78647150     0.13200
H903        H  0.24988009  0.97719576  0.72675470     0.26500
H904        H  0.25122303  0.97510332  0.78514499     0.26500
C905        C  0.16265608  0.96433908  0.64567729    -0.05400
C906        C  0.15700925  0.98745269  0.67212758     0.00500
C907        C  0.12621898  0.00930026  0.67312100    -0.08100
C908        C  0.10153926  0.00588077  0.64814336    -0.05500
C909        C  0.10809761  0.98450284  0.62030169     0.00500
C910        C  0.13940760  0.96317341  0.61904711    -0.08000
C911        C  0.14880179  0.93918491  0.59011556     0.62400
H912        H  0.18638174  0.94794853  0.64558091     0.13100
H913        H  0.07754971  0.02179006  0.64949155     0.13100
C914        C  0.11845203  0.03745461  0.69879616     0.62600
F915        F  0.17775312  0.91745417  0.59684449    -0.22600
F916        F  0.15577903  0.95812010  0.56217792    -0.19900
F917        F  0.11951647  0.42184614  0.57851544    -0.19600
F918        F  0.10733241  0.06766602  0.68274332    -0.19600
F919        F  0.15079424  0.54038596  0.71720238    -0.19900
F920        F  0.09585710  0.52691985  0.71986384    -0.22600
C921        C  0.10286669  0.50864970  0.86417739    -0.05400
C922        C  0.10914609  0.98120626  0.89359686     0.00500
C923        C  0.14112096  0.96120546  0.89649710    -0.08100
C924        C  0.16522516  0.96232306  0.87044653    -0.05500
C925        C  0.15932606  0.98382832  0.84268828     0.00500
C926        C  0.12733887  0.00372187  0.83986853    -0.08000
C927        C  0.11975351  0.53780866  0.81226568     0.62400
H928        H  0.07913405  0.52494541  0.86250695     0.13100
H929        H  0.18954070  0.94697519  0.87188762     0.13100
C930        C  0.15002397  0.93836023  0.92640237     0.62600
F931        F  0.10565176  0.06052669  0.82675149    -0.22600
F932        F  0.09262816  0.01782872  0.79271598    -0.19900
F933        F  0.14656916  0.54127314  0.79038673    -0.19600
F934        F  0.12339837  0.91803307  0.93311267    -0.19600
F935        F  0.15417336  0.45947552  0.95117412    -0.19900
F936        F  0.17937691  0.91677359  0.92092731    -0.22600
C937        C  0.35138207  0.03047561  0.66436420    -0.05400
C938        C  0.33338075  0.00088282  0.66742331     0.00500
C939        C  0.34141838  0.97262830  0.64590655    -0.08100
C940        C  0.36713982  0.97518435  0.62159537    -0.05500
C941        C  0.38510139  0.00474439  0.61853555     0.00500
C942        C  0.37725599  0.03288594  0.64013409    -0.06900
C943        C  0.39815424  0.56105633  0.64345575     0.62400
H944        H  0.34502017  0.05162151  0.68127975     0.13100
H945        H  0.37346469  0.95404282  0.60464931     0.13100
C946        C  0.32294773  0.93992754  0.64862674     0.62600
F947        F  0.38653943  0.58323855  0.66864665    -0.22600
F948        F  0.39315608  0.57788327  0.61332653    -0.19900
F949        F  0.43050011  0.05804597  0.64295243    -0.19600
F950        F  0.29244102  0.43987164  0.63755878    -0.19600
F951        F  0.32355556  0.92833250  0.68119582    -0.19900
F952        F  0.33820376  0.91396185  0.62887657    -0.22600
C953        C  0.35255861  0.52952673  0.84386298    -0.05400
C954        C  0.33663930  0.99834076  0.84156344     0.00500
C955        C  0.34476724  0.97014789  0.86310560    -0.08100
C956        C  0.36982128  0.97316341  0.88787411    -0.05500
C957        C  0.38755505  0.00284749  0.89084525     0.00500
C958        C  0.37800080  0.53278427  0.86834391    -0.08000
C959        C  0.39627770  0.56553432  0.87060138     0.62400
H960        H  0.34602981  0.55029649  0.82656279     0.13100
H961        H  0.37585852  0.95225018  0.90515740     0.13100
C962        C  0.32735782  0.93690590  0.85971056     0.62600
F963        F  0.38372070  0.58975486  0.84757574    -0.22600
F964        F  0.43097382  0.55832646  0.86451478    -0.19900
F965        F  0.39182454  0.57958155  0.90208147    -0.19600
F966        F  0.34357672  0.91087352  0.87872229    -0.19600
F967        F  0.32819638  0.92618598  0.82686010    -0.19900
F968        F  0.29356150  0.94187294  0.87012284    -0.22600
C969        C  0.47267089  0.62216934  0.63252130    -0.05400
C970        C  0.50383720  0.61029589  0.61766452     0.00500
C971        C  0.02778128  0.62255090  0.62969282    -0.08100
C972        C  0.02606070  0.64679536  0.65567792    -0.05500
C973        C  0.50257180  0.65919652  0.66914406     0.00500
C974        C  0.47132889  0.64740349  0.65749654    -0.08000
C975        C  0.43677696  0.66235235  0.67057982     0.62400
H976        H  0.44923156  0.61232825  0.62352374     0.13100
H977        H  0.04940537  0.65505027  0.66662648     0.13100
C978        C  0.06230995  0.60932822  0.61544607     0.62600
F979        F  0.40963232  0.64923031  0.65397051    -0.22600
F980        F  0.43403312  0.69758367  0.66624895    -0.19900
F981        F  0.43365343  0.65498529  0.70405406    -0.19600
F982        F  0.06432316  0.61939246  0.58252100    -0.19600
F983        F  0.06587783  0.57395363  0.61701185    -0.19900
F984        F  0.08940802  0.62191431  0.63261090    -0.22600
C985        C  0.02992782  0.64584785  0.85450913    -0.05400
C986        C  0.50240525  0.66118506  0.84345891     0.00500
C987        C  0.47105445  0.65049365  0.85610293    -0.08100
C988        C  0.47226014  0.62502910  0.88091064    -0.05500
C989        C  0.50361099  0.61067107  0.89355956     0.00500
C990        C  0.03234632  0.62231773  0.88108941    -0.08000
C991        C  0.06660881  0.61312304  0.89798518     0.62400
H992        H  0.05285647  0.65607860  0.84458423     0.13100
H993        H  0.44868191  0.61631733  0.89091313     0.13100
C994        C  0.43657637  0.66604204  0.84343966     0.62600
F995        F  0.09341848  0.62730431  0.88170663    -0.22600
F996        F  0.07354084  0.57792767  0.89874795    -0.19900
F997        F  0.06527868  0.62540647  0.93031067    -0.19600
F998        F  0.43250178  0.65747334  0.81035585    -0.19600
F999        F  0.43490739  0.70139937  0.84641586    -0.19900
F1000       F  0.40940844  0.65440724  0.86126301    -0.22600
C1001       C  0.01819769  0.85489067  0.66528405    -0.05400
C1002       C  0.48966528  0.83765412  0.66856264     0.00500
C1003       C  0.46393452  0.84169237  0.64360974    -0.08100
C1004       C  0.46727271  0.86632501  0.61852737    -0.05500
C1005       C  0.49439973  0.88789133  0.61838798     0.00500
C1006       C  0.02080388  0.87938964  0.63991923    -0.08000
C1007       C  0.05493087  0.89415444  0.63313606     0.62400
H1008       H  0.04041415  0.84676875  0.68031088     0.13100
H1009       H  0.44785600  0.86938277  0.59919785     0.13100
C1010       C  0.43240692  0.82123822  0.64215484     0.62600
F1011       F  0.08109883  0.87899953  0.65270965    -0.22600
F1012       F  0.05212889  0.92895380  0.63976263    -0.19900
F1013       F  0.06389693  0.88882188  0.60010040    -0.19600
F1014       F  0.40318666  0.84367210  0.64057887    -0.19600
F1015       F  0.42904755  0.80017349  0.66941693    -0.19900
F1016       F  0.43408374  0.80112403  0.61377099    -0.22600
C1017       C  0.01823455  0.85160143  0.85013249    -0.05400
C1018       C  0.48694024  0.83918723  0.84133637     0.00500
C1019       C  0.45976090  0.84459496  0.86464450    -0.08100
C1020       C  0.46210620  0.86991161  0.88937198    -0.05500
C1021       C  0.49003351  0.89050380  0.89059484     0.00500
C1022       C  0.02107825  0.87603967  0.87542894    -0.08000
C1023       C  0.05517835  0.89116824  0.88145875     0.62400
H1024       H  0.04011231  0.84403865  0.83440689     0.13100
H1025       H  0.44193835  0.87409237  0.90783555     0.13100
C1026       C  0.42819211  0.82426339  0.86286105     0.62600
F1027       F  0.08123062  0.87564590  0.86193367    -0.22600
F1028       F  0.06455023  0.88668532  0.91448499    -0.19900
F1029       F  0.05213711  0.92578948  0.87402323    -0.19600
F1030       F  0.43727713  0.78988146  0.86866681    -0.19600
F1031       F  0.41345841  0.82798727  0.83161580    -0.19900
F1032       F  0.40364459  0.83540736  0.88620905    -0.22600
O1033       O  0.48969594  0.40415831  0.44940906    -0.75000
O1034       O  0.49400622  0.44650458  0.41072973    -0.53900
C1035       C  0.49118207  0.41511369  0.41920541     0.78800
O1036       O  0.89923280  0.00725458  0.06125720    -0.59600
O1037       O  0.94185691  0.00500388  0.10049492    -0.52600
C1038       C  0.91000132  0.50630881  0.09023728     0.70800
O1039       O  0.90107529  0.00418115  0.44944853    -0.74100
O1040       O  0.94419049  0.00168163  0.41073266    -0.54700
C1041       C  0.91231246  0.00271238  0.41920487     0.76800
O1042       O  0.49163678  0.40314986  0.06161349    -0.59300
O1043       O  0.49414063  0.44579986  0.10014653    -0.52400
C1044       C  0.99263064  0.41486028  0.09192427     0.73400
Zr1045     Zr  0.49358817  0.42787831  0.50547753     2.54700
O1046       O  0.94977853  0.38594422  0.50658170    -0.79800
O1047       O  0.52951545  0.37566881  0.00406238    -0.93200
Zr1048     Zr  0.92475247  0.00832964  0.50579489     2.64700
O1049       O  0.87668078  0.46696422  0.50452923    -0.98200
O1050       O  0.88312801  0.05672950  0.00253462    -0.80300
O1051       O  0.95917064  0.46447872  0.47392241    -0.83600
O1052       O  0.95779056  0.46728903  0.03718448    -2.18300
O1053       O  0.59172268  0.48344636  0.06137225    -0.67000
O1054       O  0.54904507  0.49018209  0.10006788    -0.51600
C1055       C  0.58089031  0.48478205  0.09165168     0.71800
O1056       O  0.00551904  0.09385083  0.44961455    -0.59900
O1057       O  0.00001517  0.05178726  0.41091655    -0.51900
C1058       C  0.50154379  0.08531228  0.42032335     0.73600
O1059       O  0.99820915  0.09635539  0.05893448    -0.71300
O1060       O  0.99660678  0.05522765  0.09927299    -0.50000
C1061       C  0.99784208  0.08651450  0.08949188     0.75000
O1062       O  0.59345537  0.48824017  0.44885961    -0.66600
O1063       O  0.55091050  0.49368805  0.40991370    -0.53800
C1064       C  0.58179113  0.99030778  0.41830286     0.73300
Zr1065     Zr  0.56782863  0.48802508  0.00526717     2.77500
O1066       O  0.61335753  0.02952815  0.50581551    -0.97400
O1067       O  0.60660950  0.43675415  0.50388797    -0.78200
Zr1068     Zr  0.99841974  0.06983313  0.00395746     2.70100
O1069       O  0.54582505  0.10965297  0.00649489    -0.79500
O1070       O  0.95368749  0.11391489  0.50353837    -0.98500
Zr1071     Zr  0.49672486  0.99984466  0.44095458     2.21500
Zr1072     Zr  0.99594809  0.49918962  0.06910645     2.11100
O1073       O  0.53453341  0.03072329  0.03787215    -2.47200
O1074       O  0.53510191  0.03099290  0.47284229    -0.79200
O1075       O  0.52958068  0.45706839  0.03737133    -0.71400
O1076       O  0.96235671  0.03946387  0.47292906    -2.32400
O1077       O  0.53173371  0.45817162  0.47255224    -2.28600
O1078       O  0.96020692  0.03980971  0.03711124    -0.73200
H1079       H  0.94309705  0.45491028  0.05142699     0.78800
H1080       H  0.94915106  0.05508388  0.45829458     0.79900
H1081       H  0.54926816  0.04276187  0.05219979     0.82100
H1082       H  0.54499257  0.44242704  0.45808888     0.79700
H1083       H  0.86649236  0.05666948  0.51195371     0.42700
H1084       H  0.93462875  0.10991778  0.01206272     0.41700
H1085       H  0.56859852  0.08976594  0.51521548     0.41400
H1086       H  0.61208428  0.04114476  0.02524848     0.39300
H1087       H  0.59587045  0.41921335  0.99533461     0.42500
H1088       H  0.54838870  0.38044276  0.48345767     0.37200
H1089       H  0.93146787  0.39647652  0.52126199     0.43400
H1090       H  0.88224896  0.45341925  0.02230088     0.39800
H1091       H  0.63645419  0.00972581  0.01330011     0.44700
H1092       H  0.51524406  0.35738505  0.99627198     0.43400
H1093       H  0.85632924  0.48152315  0.51231538     0.43600
H1094       H  0.96314662  0.13579603  0.01548692     0.43900
N1095       N  0.99797330  0.25093259  0.20440326    -0.36300
N1096       N  0.00677283  0.19610431  0.25412003    -0.56800
N1097       N  0.99992198  0.24766338  0.30672504    -0.36300
N1098       N  0.99527013  0.30253595  0.25689950    -0.56800
C1099       C  0.00330658  0.22355523  0.18391873     0.27300
C1100       C  0.99827265  0.27956917  0.18547326     0.27300
C1101       C  0.00788745  0.21923798  0.32530066     0.27300
C1102       C  0.00273882  0.27520586  0.32665510     0.27300
C1103       C  0.00507733  0.17638338  0.22655454     0.35900
C1104       C  0.00668616  0.17466372  0.28060010     0.35900
C1105       C  0.99098822  0.32400740  0.23058083     0.35900
C1106       C  0.99192274  0.32221834  0.28451592     0.35900
C1107       C  0.00659202  0.23495279  0.15141981    -0.21600
C1108       C  0.00352948  0.27019146  0.15240469    -0.21600
C1109       C  0.01521453  0.22889757  0.35762462    -0.21600
C1110       C  0.01221763  0.26413232  0.35841214    -0.21600
C1111       C  0.00522061  0.14210971  0.23558894    -0.22600
C1112       C  0.00635678  0.14101731  0.26974742    -0.22600
C1113       C  0.98553359  0.35764921  0.24154619    -0.22600
C1114       C  0.98596265  0.35651070  0.27569340    -0.22600
C1115       C  0.00337792  0.18853997  0.19323989    -0.18000
C1116       C  0.99279542  0.31398474  0.19671474    -0.18000
C1117       C  0.99574231  0.31008896  0.31761938    -0.18000
C1118       C  0.00694063  0.18477993  0.31450626    -0.18000
H1119       H  0.01042098  0.21952363  0.12914860     0.14900
H1120       H  0.00457303  0.28695788  0.13101737     0.14900
H1121       H  0.02192423  0.21237858  0.37863544     0.14900
H1122       H  0.01619231  0.27979711  0.38009647     0.14900
H1123       H  0.00428257  0.12014952  0.21927780     0.13200
H1124       H  0.00645800  0.11807530  0.28488313     0.13200
H1125       H  0.98165079  0.38063697  0.22652029     0.13200
H1126       H  0.98260337  0.37848758  0.29212146     0.13200
H1127       H  0.99122453  0.25000973  0.22920610     0.26500
H1128       H  0.98924075  0.24814860  0.28315275     0.26500
N1129       N  0.74639786  0.48834554  0.20316242    -0.36300
N1130       N  0.69607617  0.48162276  0.25467535    -0.56800
N1131       N  0.74814640  0.48773057  0.30448003    -0.36300
N1132       N  0.79910500  0.49505576  0.25310291    -0.56800
C1133       C  0.71663303  0.49462322  0.18615911     0.27300
C1134       C  0.77162082  0.50109939  0.18493711     0.27300
C1135       C  0.71912319  0.49462167  0.32259203     0.27300
C1136       C  0.77446335  0.49904975  0.32215415     0.27300
C1137       C  0.67831847  0.47156579  0.22814016     0.35900
C1138       C  0.67881057  0.47266342  0.28198269     0.35900
C1139       C  0.81909662  0.49140541  0.22559559     0.35900
C1140       C  0.82024580  0.49006603  0.27965912     0.35900
C1141       C  0.72298548  0.51189536  0.15685147    -0.21600
C1142       C  0.75781692  0.51578821  0.15598010    -0.21600
C1143       C  0.72710953  0.51070560  0.35205793    -0.21600
C1144       C  0.76214298  0.51332704  0.35186184    -0.21600
C1145       C  0.64991838  0.45515978  0.23856471    -0.22600
C1146       C  0.65016842  0.45595438  0.27289389    -0.22600
C1147       C  0.85321114  0.48446328  0.23468428    -0.22600
C1148       C  0.85393092  0.48357083  0.26899197    -0.22600
C1149       C  0.68463530  0.48259946  0.19543036    -0.18000
C1150       C  0.80703192  0.49679563  0.19262862    -0.18000
C1151       C  0.80952874  0.49386571  0.31326485    -0.18000
C1152       C  0.68630053  0.48412050  0.31422217    -0.18000
H1153       H  0.70458581  0.52017732  0.13776252     0.14900
H1154       H  0.77151614  0.52755935  0.13609327     0.14900
H1155       H  0.70964709  0.51895709  0.37196753     0.14900
H1156       H  0.77696263  0.52398835  0.37155341     0.14900
H1157       H  0.63017067  0.44539549  0.22309278     0.13200
H1158       H  0.63071540  0.44686594  0.28920906     0.13200
H1159       H  0.87527772  0.48084122  0.21832844     0.13200
H1160       H  0.87666024  0.47916998  0.28431768     0.13200
H1161       H  0.75009890  0.47236853  0.22382352     0.26500
H1162       H  0.75067943  0.47224630  0.28338240     0.26500
C1163       C  0.66261589  0.46147932  0.14218423    -0.05400
C1164       C  0.65672462  0.48266610  0.17009261     0.00500
C1165       C  0.62505909  0.50298585  0.17297219    -0.08100
C1166       C  0.60016370  0.50049822  0.14803399    -0.05500
C1167       C  0.60696370  0.48133442  0.11881344     0.00500
C1168       C  0.63861208  0.46073272  0.11612439    -0.08000
C1169       C  0.64745640  0.43776468  0.08630010     0.62400
H1170       H  0.68691171  0.44610002  0.14061092     0.13100
H1171       H  0.57567955  0.51537379  0.15065594     0.13100
C1172       C  0.61642387  0.52819356  0.20114730     0.62600
F1173       F  0.67569715  0.41491521  0.09247662    -0.22600
F1174       F  0.65519890  0.45764869  0.05922703    -0.19900
F1175       F  0.61847760  0.92202695  0.08137859    -0.19600
F1176       F  0.60032633  0.55827518  0.18857057    -0.19600
F1177       F  0.64312488  0.04333199  0.21939779    -0.19900
F1178       F  0.58956721  0.02581602  0.21907100    -0.22600
C1179       C  0.60209845  0.00910744  0.36325717    -0.05400
C1180       C  0.60930653  0.48669899  0.39179732     0.00500
C1181       C  0.63886289  0.46291380  0.39314497    -0.08100
C1182       C  0.66255283  0.46210267  0.36662991    -0.05500
C1183       C  0.65890056  0.48548198  0.34019980     0.00500
C1184       C  0.63064022  0.51055219  0.33985448    -0.08000
C1185       C  0.61968834  0.03966387  0.31214757     0.62400
H1186       H  0.57759119  0.02392938  0.36067309     0.13100
H1187       H  0.68502022  0.44395649  0.36685186     0.13100
C1188       C  0.64602389  0.43867142  0.42236635     0.62600
F1189       F  0.60093924  0.56343693  0.32118822    -0.22600
F1190       F  0.62501599  0.52746705  0.28311819    -0.19900
F1191       F  0.64841789  0.04733918  0.29431563    -0.19600
F1192       F  0.61707312  0.42208236  0.43016416    -0.19600
F1193       F  0.65614078  0.96398910  0.45112217    -0.19900
F1194       F  0.67225783  0.41375449  0.41537710    -0.22600
C1195       C  0.84909782  0.52972843  0.16194902    -0.05400
C1196       C  0.83255274  0.49923179  0.16522975     0.00500
C1197       C  0.84112354  0.47142739  0.14327014    -0.08100
C1198       C  0.86652476  0.47502447  0.11894596    -0.05500
C1199       C  0.88356038  0.50513683  0.11626379     0.00500
C1200       C  0.87456189  0.53318148  0.13754298    -0.06900
C1201       C  0.89305341  0.06604246  0.13661189     0.62400
H1202       H  0.84198622  0.55070878  0.17883989     0.13100
H1203       H  0.87371389  0.45410678  0.10197969     0.13100
C1204       C  0.82422727  0.43782166  0.14602097     0.62600
F1205       F  0.87904390  0.09098983  0.15819168    -0.22600
F1206       F  0.88942641  0.07856241  0.10444910    -0.19900
F1207       F  0.92639300  0.56082264  0.14001847    -0.19600
F1208       F  0.79086143  0.94283963  0.14072715    -0.19600
F1209       F  0.82983640  0.42404800  0.17744909    -0.19900
F1210       F  0.83730245  0.41390885  0.12290426    -0.22600
C1211       C  0.85578275  0.02475808  0.34364831    -0.05400
C1212       C  0.83586195  0.49422526  0.34026304     0.00500
C1213       C  0.84265471  0.46608681  0.36226955    -0.08100
C1214       C  0.86729175  0.46859646  0.38771472    -0.05500
C1215       C  0.88533308  0.49806554  0.39145555     0.00500
C1216       C  0.88088372  0.02785229  0.36843638    -0.08000
C1217       C  0.90069315  0.05966087  0.36971271     0.62400
H1218       H  0.85064079  0.04498573  0.32545807     0.13100
H1219       H  0.87283725  0.44745382  0.40483419     0.13100
C1220       C  0.82425037  0.43344338  0.35854475     0.62600
F1221       F  0.88946122  0.08333857  0.34569788    -0.22600
F1222       F  0.93522687  0.05075152  0.36421359    -0.19900
F1223       F  0.89645129  0.07508900  0.40061851    -0.19600
F1224       F  0.83688620  0.40811407  0.38040470    -0.19600
F1225       F  0.82853039  0.42086392  0.32648138    -0.19900
F1226       F  0.78955250  0.44016452  0.36492435    -0.22600
C1227       C  0.96908866  0.12727757  0.12977289    -0.05400
C1228       C  0.99969527  0.11327640  0.11519696     0.00500
C1229       C  0.53288644  0.12224197  0.12951962    -0.08100
C1230       C  0.53157182  0.14645344  0.15560245    -0.05500
C1231       C  0.00131099  0.16284506  0.16602665     0.00500
C1232       C  0.96930050  0.15246935  0.15481954    -0.08000
C1233       C  0.93565041  0.16827022  0.16915091     0.62400
H1234       H  0.94500133  0.11859863  0.12106691     0.13100
H1235       H  0.55508443  0.15487516  0.16604176     0.13100
C1236       C  0.56700625  0.11018126  0.11361930     0.62600
F1237       F  0.90747376  0.15624959  0.15332634    -0.22600
F1238       F  0.93374508  0.20355374  0.16533222    -0.19900
F1239       F  0.93367517  0.16046763  0.20265025    -0.19600
F1240       F  0.56661824  0.11943712  0.08035775    -0.19600
F1241       F  0.57235977  0.07493588  0.11593329    -0.19900
F1242       F  0.59433029  0.12462030  0.12871104    -0.22600
C1243       C  0.53298204  0.14689620  0.35611991    -0.05400
C1244       C  0.00581509  0.15771512  0.34065483     0.00500
C1245       C  0.97422420  0.14586568  0.35138922    -0.08100
C1246       C  0.97465411  0.12098301  0.37682583    -0.05500
C1247       C  0.00535154  0.10890223  0.39255968     0.00500
C1248       C  0.53389033  0.12310103  0.38249065    -0.08000
C1249       C  0.56780920  0.11086523  0.39858818     0.62400
H1250       H  0.55661566  0.15573321  0.34630365     0.13100
H1251       H  0.95086029  0.11148214  0.38534521     0.13100
C1252       C  0.94024880  0.16027669  0.33656297     0.62600
F1253       F  0.59537393  0.12497770  0.38353266    -0.22600
F1254       F  0.57282457  0.07560716  0.39630933    -0.19900
F1255       F  0.56731409  0.12011695  0.43184234    -0.19600
F1256       F  0.93925417  0.15293648  0.30292418    -0.19600
F1257       F  0.93655084  0.19549446  0.34088584    -0.19900
F1258       F  0.91246463  0.14660230  0.35155601    -0.22600
C1259       C  0.51256712  0.36213146  0.17110633    -0.05400
C1260       C  0.99140442  0.34143820  0.17100314     0.00500
C1261       C  0.96019720  0.35410367  0.15581715    -0.08100
C1262       C  0.96143196  0.37835511  0.12997207    -0.05500
C1263       C  0.99281833  0.38965501  0.11913224     0.00500
C1264       C  0.51572852  0.38701258  0.14617160    -0.08000
C1265       C  0.54504753  0.41033297  0.14807187     0.62400
H1266       H  0.53082259  0.35984151  0.19145540     0.13100
H1267       H  0.93800010  0.38844338  0.11779700     0.13100
C1268       C  0.92605796  0.34146428  0.16653351     0.62600
F1269       F  0.56758283  0.40114801  0.17377343    -0.22600
F1270       F  0.53218570  0.44382898  0.15350924    -0.19900
F1271       F  0.56344898  0.40838310  0.11861164    -0.19600
F1272       F  0.89867663  0.35820384  0.14969978    -0.19600
F1273       F  0.92101215  0.34709624  0.20024323    -0.19900
F1274       F  0.92601609  0.30669137  0.16014631    -0.22600
C1275       C  0.51276564  0.35830038  0.34409313    -0.05400
C1276       C  0.99511473  0.33601724  0.34461100     0.00500
C1277       C  0.96516198  0.34494671  0.36359354    -0.08100
C1278       C  0.96673424  0.36967802  0.38880839    -0.05500
C1279       C  0.99696696  0.38579686  0.39479365     0.00500
C1280       C  0.51546800  0.38431952  0.36782840    -0.08000
C1281       C  0.54653198  0.40538382  0.36728477     0.62400
H1282       H  0.53274552  0.35329395  0.32557263     0.13100
H1283       H  0.94430023  0.37683152  0.40395441     0.13100
C1284       C  0.93186432  0.32840515  0.35719714     0.62600
F1285       F  0.57009675  0.39414856  0.34308118    -0.22600
F1286       F  0.56280298  0.40291818  0.39781353    -0.19900
F1287       F  0.53629953  0.43936031  0.36063875    -0.19600
F1288       F  0.93589879  0.29402408  0.36564943    -0.19600
F1289       F  0.92309607  0.33143117  0.32389929    -0.19900
F1290       F  0.90489608  0.34373857  0.37571135    -0.22600
O1291       O  0.48878626  0.40408524  0.94852788    -0.75000
O1292       O  0.49421080  0.44642312  0.90993964    -0.53900
C1293       C  0.49124880  0.41503558  0.91838996     0.78800
O1294       O  0.90053106  0.00704950  0.56224063    -0.59600
O1295       O  0.94317951  0.00340915  0.60140084    -0.52600
C1296       C  0.91050545  0.50476007  0.59201027     0.70800
O1297       O  0.90058109  0.00355358  0.94865221    -0.74100
O1298       O  0.94370919  0.00076732  0.90990855    -0.54700
C1299       C  0.91183361  0.00219703  0.91843811     0.76800
O1300       O  0.49371022  0.40414359  0.56174430    -0.59300
O1301       O  0.49763159  0.44647065  0.60057983    -0.52400
C1302       C  0.99281509  0.41515579  0.59423944     0.73400
Zr1303     Zr  0.49045805  0.42744038  0.00507115     2.54700
O1304       O  0.94262318  0.39316890  0.00559219    -0.79800
O1305       O  0.53654889  0.37915919  0.50519668    -0.93200
Zr1306     Zr  0.92383249  0.00629638  0.00517316     2.64700
O1307       O  0.87742443  0.46936861  0.00340713    -0.98200
O1308       O  0.88963844  0.06264458  0.50499118    -0.80300
O1309       O  0.95819904  0.46683491  0.97238228    -0.83600
O1310       O  0.95853511  0.46574144  0.53855386    -2.18300
O1311       O  0.59370908  0.48741041  0.56046897    -0.67000
O1312       O  0.55165970  0.49440808  0.59989165    -0.51600
C1313       C  0.58335680  0.48977739  0.59082733     0.71800
O1314       O  0.00019421  0.09293201  0.94781193    -0.59900
O1315       O  0.99922079  0.04956188  0.90968856    -0.51900
C1316       C  0.50153026  0.08511971  0.91970506     0.73600
O1317       O  0.00291296  0.09456803  0.56048523    -0.71300
O1318       O  0.99889038  0.05278196  0.59989536    -0.50000
C1319       C  0.00136390  0.08409981  0.59072997     0.75000
O1320       O  0.59275439  0.48226346  0.94952804    -0.66600
O1321       O  0.55040055  0.49101127  0.91077327    -0.53800
C1322       C  0.58268300  0.98913524  0.91986555     0.73300
Zr1323     Zr  0.56915163  0.48960600  0.50477476     2.77500
O1324       O  0.61652950  0.02528802  0.00622570    -0.97400
O1325       O  0.60834542  0.43740468  0.00598676    -0.78200
Zr1326     Zr  0.00099419  0.06946383  0.50529300     2.70100
O1327       O  0.54902181  0.10552678  0.50773010    -0.79500
O1328       O  0.95494024  0.11801267  0.00055014    -0.98500
Zr1329     Zr  0.49727943  0.99996720  0.94136617     2.21500
Zr1330     Zr  0.99572653  0.49931155  0.57003793     2.11100
O1331       O  0.53516841  0.03023249  0.53778767    -2.47200
O1332       O  0.53551311  0.03102573  0.97360726    -0.79200
O1333       O  0.53210746  0.45825541  0.53777618    -0.71400
O1334       O  0.96081275  0.03788339  0.97223466    -2.32400
O1335       O  0.52969747  0.45736863  0.97304441    -2.28600
O1336       O  0.96229457  0.03978598  0.53830704    -0.73200
H1337       H  0.94414764  0.45323269  0.55299347     0.78800
H1338       H  0.94723514  0.05298934  0.95742163     0.79900
H1339       H  0.54997096  0.04212668  0.55232235     0.82100
H1340       H  0.54281020  0.44132260  0.95878503     0.79700
H1341       H  0.88746051  0.06974018  0.02306106     0.42700
H1342       H  0.94289735  0.11326967  0.52584772     0.41700
H1343       H  0.53405383  0.13252148  0.01122453     0.41400
H1344       H  0.61305037  0.03874654  0.52879217     0.39300
H1345       H  0.59382829  0.42001054  0.51642111     0.42500
H1346       H  0.54543276  0.37913102  0.98534647     0.37200
H1347       H  0.92577038  0.40589277  0.99080226     0.43400
H1348       H  0.88190012  0.45044937  0.52288867     0.39800
H1349       H  0.63509654  0.01472080  0.50438585     0.44700
H1350       H  0.52303193  0.35882147  0.50330234     0.43400
H1351       H  0.85677295  0.48398553  0.01034841     0.43600
H1352       H  0.96498803  0.13573674  0.50320743     0.43900
N1353       N  0.99035124  0.24927472  0.70466303    -0.36300
N1354       N  0.99749495  0.19501830  0.75434597    -0.56800
N1355       N  0.99090551  0.24681857  0.80678995    -0.36300
N1356       N  0.98726577  0.30092768  0.75716056    -0.56800
C1357       C  0.99809103  0.22183428  0.68474856     0.27300
C1358       C  0.99431601  0.27775558  0.68632765     0.27300
C1359       C  0.00016495  0.21848329  0.82501444     0.27300
C1360       C  0.99447861  0.27440663  0.82650583     0.27300
C1361       C  0.99462317  0.17529993  0.72697491     0.35900
C1362       C  0.99574151  0.17395051  0.78090426     0.35900
C1363       C  0.98164068  0.32189490  0.73063280     0.35900
C1364       C  0.98086777  0.32050623  0.78454738     0.35900
C1365       C  0.00649478  0.23300026  0.65319186    -0.21600
C1366       C  0.00430557  0.26826175  0.65423693    -0.21600
C1367       C  0.00930678  0.22817794  0.85684437    -0.21600
C1368       C  0.00587636  0.26344951  0.85773144    -0.21600
C1369       C  0.99193278  0.14140118  0.73617866    -0.22600
C1370       C  0.99271597  0.14053594  0.77033550    -0.22600
C1371       C  0.97194580  0.35502134  0.74121995    -0.22600
C1372       C  0.97147444  0.35414529  0.77538052    -0.22600
C1373       C  0.99598343  0.18704858  0.69370853    -0.18000
C1374       C  0.98699721  0.31210901  0.69701342    -0.18000
C1375       C  0.98596224  0.30911687  0.81771764    -0.18000
C1376       C  0.99801948  0.18411863  0.81458250    -0.18000
H1377       H  0.01325371  0.21740557  0.63153460     0.14900
H1378       H  0.00899593  0.28499967  0.63350811     0.14900
H1379       H  0.01721035  0.21159716  0.87749704     0.14900
H1380       H  0.01065574  0.27920145  0.87915267     0.14900
H1381       H  0.98976323  0.11953436  0.71997745     0.13200
H1382       H  0.99122129  0.11788035  0.78563725     0.13200
H1383       H  0.96614321  0.37755763  0.72593569     0.13200
H1384       H  0.96535720  0.37588580  0.79162124     0.13200
H1385       H  0.97918183  0.24862570  0.72806217     0.26500
H1386       H  0.97883324  0.24712390  0.78378271     0.26500
N1387       N  0.74742559  0.49017818  0.70452876    -0.36300
N1388       N  0.69531421  0.48394096  0.75467462    -0.56800
N1389       N  0.74699211  0.48532982  0.80584049    -0.36300
N1390       N  0.79933362  0.49241592  0.75553892    -0.56800
C1391       C  0.71857469  0.49698854  0.68631792     0.27300
C1392       C  0.77388290  0.50095900  0.68665334     0.27300
C1393       C  0.71774048  0.49228986  0.82358938     0.27300
C1394       C  0.77321300  0.49583365  0.82426953     0.27300
C1395       C  0.67725822  0.47669416  0.72733764     0.35900
C1396       C  0.67689676  0.47457815  0.78111515     0.35900
C1397       C  0.82003997  0.48938434  0.72854428     0.35900
C1398       C  0.81977700  0.48688681  0.78243040     0.35900
C1399       C  0.72681008  0.51217214  0.65641104    -0.21600
C1400       C  0.76180049  0.51464475  0.65660846    -0.21600
C1401       C  0.72549949  0.50737497  0.85363907    -0.21600
C1402       C  0.76056400  0.50953093  0.85410240    -0.21600
C1403       C  0.64732863  0.46206449  0.73633529    -0.22600
C1404       C  0.64702981  0.46085857  0.77059559    -0.22600
C1405       C  0.85390612  0.48207638  0.73829152    -0.22600
C1406       C  0.85373726  0.48045099  0.77252110    -0.22600
C1407       C  0.68556886  0.48733068  0.69500813    -0.18000
C1408       C  0.80889391  0.49567357  0.69549106    -0.18000
C1409       C  0.80842395  0.49112140  0.81569680    -0.18000
C1410       C  0.68468336  0.48316022  0.81419266    -0.18000
H1411       H  0.70953342  0.51996233  0.63623524     0.14900
H1412       H  0.77676279  0.52459767  0.63659229     0.14900
H1413       H  0.70779792  0.51557568  0.87337344     0.14900
H1414       H  0.77515979  0.51962481  0.87426990     0.14900
H1415       H  0.62716780  0.45455106  0.72000059     0.13200
H1416       H  0.62660264  0.45221581  0.78598545     0.13200
H1417       H  0.87640492  0.47890986  0.72245001     0.13200
H1418       H  0.87609866  0.47586346  0.78831997     0.13200
H1419       H  0.74960173  0.47500232  0.72581145     0.26500
H1420       H  0.74950485  0.47056703  0.78426662     0.26500
C1421       C  0.66239921  0.46381143  0.64341271    -0.05400
C1422       C  0.65869860  0.48829378  0.66886425     0.00500
C1423       C  0.63105585  0.51397203  0.66807015    -0.08100
C1424       C  0.60598901  0.51214955  0.64321134    -0.05500
C1425       C  0.60990778  0.48811679  0.61720625     0.00500
C1426       C  0.63920342  0.46406847  0.61668594    -0.08000
C1427       C  0.64671230  0.43925087  0.58800770     0.62400
H1428       H  0.68456860  0.44529816  0.64407482     0.13100
H1429       H  0.58364688  0.53037320  0.64328917     0.13100
C1430       C  0.62920080  0.54423055  0.69198512     0.62600
F1431       F  0.67295511  0.41455109  0.59556466    -0.22600
F1432       F  0.65665484  0.45715755  0.56036155    -0.19900
F1433       F  0.62760016  0.91965880  0.57518655    -0.19600
F1434       F  0.60274042  0.56851270  0.68389713    -0.19600
F1435       F  0.64267647  0.03400474  0.72084411    -0.19900
F1436       F  0.58982690  0.01474960  0.71937692    -0.22600
C1437       C  0.60295598  0.00689235  0.86458737    -0.05400
C1438       C  0.60814441  0.48149781  0.89200497     0.00500
C1439       C  0.63886693  0.45929589  0.89317779    -0.08100
C1440       C  0.66227021  0.45993594  0.86649599    -0.05500
C1441       C  0.65725136  0.48329800  0.84007573     0.00500
C1442       C  0.62701490  0.50597946  0.83936365    -0.08000
C1443       C  0.62076315  0.03704502  0.81339712     0.62400
H1444       H  0.57878969  0.02235767  0.86227692     0.13100
H1445       H  0.68560856  0.44296826  0.86657832     0.13100
C1446       C  0.64747463  0.43506009  0.92210418     0.62600
F1447       F  0.61155047  0.56527113  0.83169577    -0.22600
F1448       F  0.59261067  0.52813026  0.79452222    -0.19900
F1449       F  0.64942844  0.04335288  0.79482611    -0.19600
F1450       F  0.61983002  0.41629128  0.92925107    -0.19600
F1451       F  0.65514681  0.96391290  0.95360735    -0.19900
F1452       F  0.67534779  0.41201073  0.91504484    -0.22600
C1453       C  0.85164172  0.52795612  0.66539508    -0.05400
C1454       C  0.83500553  0.49759827  0.66875995     0.00500
C1455       C  0.84289549  0.46984889  0.64668894    -0.08100
C1456       C  0.86755508  0.47348402  0.62167332    -0.05500
C1457       C  0.88454535  0.50363446  0.61855454     0.00500
C1458       C  0.87651933  0.53145896  0.64048902    -0.06900
C1459       C  0.89231590  0.06501839  0.63718829     0.62400
H1460       H  0.84497045  0.54881719  0.68255689     0.13100
H1461       H  0.87410590  0.45261119  0.60447773     0.13100
C1462       C  0.82571265  0.43643014  0.64999290     0.62600
F1463       F  0.87825832  0.08951493  0.65922442    -0.22600
F1464       F  0.88775857  0.07772245  0.60518950    -0.19900
F1465       F  0.92845257  0.55874034  0.64447327    -0.19600
F1466       F  0.79238204  0.93996627  0.64441643    -0.19600
F1467       F  0.83087142  0.42329875  0.68174715    -0.19900
F1468       F  0.83885416  0.41196013  0.62748705    -0.22600
C1469       C  0.85247083  0.02626494  0.84555728    -0.05400
C1470       C  0.83459130  0.49385471  0.84235502     0.00500
C1471       C  0.84264026  0.46702139  0.86545204    -0.08100
C1472       C  0.86759192  0.47162016  0.88997782    -0.05500
C1473       C  0.88519638  0.50154112  0.89134755     0.00500
C1474       C  0.87809169  0.02906028  0.86986108    -0.08000
C1475       C  0.89675774  0.06151269  0.87222399     0.62400
H1476       H  0.84582933  0.04733626  0.82862624     0.13100
H1477       H  0.87400150  0.45158530  0.90810442     0.13100
C1478       C  0.82572897  0.43335675  0.86355677     0.62600
F1479       F  0.88317120  0.08659444  0.85057074    -0.22600
F1480       F  0.93101022  0.05410611  0.86421544    -0.19900
F1481       F  0.89419824  0.07449644  0.90426749    -0.19600
F1482       F  0.83933595  0.40977736  0.88670070    -0.19600
F1483       F  0.83072891  0.41916002  0.83220573    -0.19900
F1484       F  0.79086861  0.43889696  0.86964376    -0.22600
C1485       C  0.96901617  0.12496950  0.62755238    -0.05400
C1486       C  0.00106259  0.11050039  0.61675141     0.00500
C1487       C  0.52962887  0.11916959  0.63221078    -0.08100
C1488       C  0.52787852  0.14394279  0.65765712    -0.05500
C1489       C  0.99686939  0.16109640  0.66660998     0.00500
C1490       C  0.96636109  0.15092503  0.65180101    -0.08000
C1491       C  0.93139784  0.16823871  0.66081500     0.62400
H1492       H  0.94608862  0.11641790  0.61605287     0.13100
H1493       H  0.55116919  0.15152744  0.66926236     0.13100
C1494       C  0.56418909  0.10413104  0.61951771     0.62600
F1495       F  0.90511608  0.15433665  0.64351898    -0.22600
F1496       F  0.93057080  0.20278180  0.65304624    -0.19900
F1497       F  0.92523236  0.16461672  0.69448844    -0.19600
F1498       F  0.56766332  0.11235058  0.58624057    -0.19600
F1499       F  0.56633598  0.06888747  0.62281046    -0.19900
F1500       F  0.59124842  0.11659318  0.63683514    -0.22600
C1501       C  0.52976013  0.14752138  0.85439918    -0.05400
C1502       C  0.99816419  0.15718604  0.84074331     0.00500
C1503       C  0.96714658  0.14688336  0.85446061    -0.08100
C1504       C  0.96896502  0.12141274  0.87923820    -0.05500
C1505       C  0.00061438  0.10688228  0.89098803     0.00500
C1506       C  0.53200555  0.12334592  0.88049669    -0.08000
C1507       C  0.56659684  0.11171382  0.89553251     0.62400
H1508       H  0.55286167  0.15689428  0.84393678     0.13100
H1509       H  0.94566752  0.11319758  0.89026636     0.13100
C1510       C  0.93243440  0.16334674  0.84342659     0.62600
F1511       F  0.59347409  0.12487974  0.87845169    -0.22600
F1512       F  0.57149134  0.07634875  0.89491131    -0.19900
F1513       F  0.56754219  0.12273114  0.92822243    -0.19600
F1514       F  0.92736806  0.15687451  0.81001888    -0.19600
F1515       F  0.93116266  0.19843656  0.84843922    -0.19900
F1516       F  0.90565200  0.15084990  0.86115281    -0.22600
C1517       C  0.52219068  0.35048538  0.65927952    -0.05400
C1518       C  0.98646730  0.33969357  0.67145821     0.00500
C1519       C  0.95926375  0.34586187  0.64826670    -0.08100
C1520       C  0.96254367  0.37061137  0.62329570    -0.05500
C1521       C  0.99125617  0.39003939  0.62161833     0.00500
C1522       C  0.52490003  0.37607867  0.63504944    -0.08000
C1523       C  0.55957912  0.38886764  0.62678101     0.62400
H1524       H  0.54494043  0.33968584  0.67213139     0.13100
H1525       H  0.94215156  0.37518723  0.60509963     0.13100
C1526       C  0.92640140  0.32737423  0.64848269     0.62600
F1527       F  0.58595399  0.37169472  0.64466539    -0.22600
F1528       F  0.55923578  0.42344729  0.63421919    -0.19900
F1529       F  0.56629937  0.38398080  0.59322784    -0.19600
F1530       F  0.89837369  0.35136485  0.64936347    -0.19600
F1531       F  0.92375158  0.30571221  0.67541617    -0.19900
F1532       F  0.92486234  0.30822308  0.61963263    -0.22600
C1533       C  0.51709577  0.35495130  0.84675984    -0.05400
C1534       C  0.98614914  0.33560782  0.84433154     0.00500
C1535       C  0.95720137  0.34441770  0.86479818    -0.08100
C1536       C  0.95965638  0.36995037  0.88925393    -0.05500
C1537       C  0.98965934  0.38720841  0.89291486     0.00500
C1538       C  0.51985079  0.37938420  0.87211588    -0.08000
C1539       C  0.55427436  0.39321985  0.87940880     0.62400
H1540       H  0.53927908  0.34674884  0.83167901     0.13100
H1541       H  0.93799848  0.37705501  0.90541406     0.13100
C1542       C  0.92378102  0.32753663  0.86016959     0.62600
F1543       F  0.58030132  0.37806012  0.85961944    -0.22600
F1544       F  0.56283725  0.38673461  0.91234493    -0.19900
F1545       F  0.55230543  0.42816509  0.87367771    -0.19600
F1546       F  0.92918229  0.29249989  0.86504552    -0.19600
F1547       F  0.91155679  0.33372453  0.82823855    -0.19900
F1548       F  0.89871634  0.34014272  0.88240216    -0.22600
O1549       O  0.49071391  0.90434622  0.44786698    -0.75000
O1550       O  0.49463493  0.94707699  0.40939405    -0.53900
C1551       C  0.49223565  0.91555337  0.41773197     0.78800
O1552       O  0.89927274  0.50773412  0.05995039    -0.59600
O1553       O  0.94174688  0.50412224  0.09934354    -0.52600
C1554       C  0.91010240  0.00643372  0.09156297     0.70800
O1555       O  0.89973236  0.50024124  0.44886948    -0.74100
O1556       O  0.94295592  0.49848268  0.41028281    -0.54700
C1557       C  0.91103678  0.49897877  0.41863696     0.76800
O1558       O  0.49043430  0.90352620  0.06036126    -0.59300
O1559       O  0.49465218  0.94552091  0.09952085    -0.52400
C1560       C  0.99684721  0.91633208  0.09455736     0.73400
Zr1561     Zr  0.49280847  0.92731839  0.50459712     2.54700
O1562       O  0.94194140  0.89336642  0.50631139    -0.79800
O1563       O  0.53616520  0.87995764  0.00524053    -0.93200
Zr1564     Zr  0.92360542  0.50459566  0.50519936     2.64700
O1565       O  0.87440170  0.97517002  0.50479884    -0.98200
O1566       O  0.88515006  0.55934563  0.00350452    -0.80300
O1567       O  0.95860275  0.96735986  0.47381278    -0.83600
O1568       O  0.95805064  0.96733230  0.03905726    -2.18300
O1569       O  0.59186584  0.98606173  0.06239239    -0.67000
O1570       O  0.54886480  0.99233780  0.10085958    -0.51600
C1571       C  0.58079835  0.98760712  0.09259904     0.71800
O1572       O  0.99911420  0.59352791  0.44891329    -0.59900
O1573       O  0.99781590  0.55051772  0.41042022    -0.51900
C1574       C  0.50214409  0.58501252  0.41978702     0.73600
O1575       O  0.99895186  0.59518866  0.06022904    -0.71300
O1576       O  0.99704916  0.55298162  0.09950367    -0.50000
C1577       C  0.99817031  0.58453063  0.09051588     0.75000
O1578       O  0.59226291  0.98897403  0.44866271    -0.66600
O1579       O  0.54998672  0.99396746  0.40952666    -0.53800
C1580       C  0.58280754  0.48955024  0.41855605     0.73300
Zr1581     Zr  0.56820786  0.98942128  0.00609765     2.77500
O1582       O  0.61689197  0.52622551  0.50440827    -0.97400
O1583       O  0.60908023  0.93916374  0.50248058    -0.78200
Zr1584     Zr  0.99881091  0.56997924  0.00468808     2.70100
O1585       O  0.54899771  0.60588914  0.00576538    -0.79500
O1586       O  0.94973757  0.61428172  0.50397636    -0.98500
Zr1587     Zr  0.49713513  0.49966656  0.44120046     2.21500
Zr1588     Zr  0.99583462  0.00062963  0.07006950     2.11100
O1589       O  0.53495741  0.52949953  0.03765019    -2.47200
O1590       O  0.53555542  0.53084427  0.47290921    -0.79200
O1591       O  0.53018979  0.95809229  0.03787250    -0.71400
O1592       O  0.95980418  0.53726895  0.47241854    -2.32400
O1593       O  0.53116604  0.95817447  0.47231150    -2.28600
O1594       O  0.96072412  0.53938355  0.03712024    -0.73200
H1595       H  0.94368405  0.95501296  0.05368724     0.78800
H1596       H  0.94598169  0.55224457  0.45768092     0.79900
H1597       H  0.54995595  0.54128228  0.05208468     0.82100
H1598       H  0.54459467  0.94260940  0.45780378     0.79700
H1599       H  0.87119175  0.55621840  0.52378953     0.42700
H1600       H  0.96238994  0.63581787  0.01177919     0.41700
H1601       H  0.56655606  0.59522243  0.49369800     0.41400
H1602       H  0.63452458  0.51234354  0.99916958     0.39300
H1603       H  0.59247564  0.91984374  0.01829660     0.42500
H1604       H  0.54682237  0.87869518  0.48313691     0.37200
H1605       H  0.92691337  0.90393210  0.48862599     0.43400
H1606       H  0.88151810  0.95335401  0.02535128     0.39800
H1607       H  0.60903424  0.54102762  0.98381738     0.44700
H1608       H  0.52312848  0.85930963  0.00317122     0.43400
H1609       H  0.85551946  0.99065647  0.51418759     0.43600
H1610       H  0.94696128  0.61946784  0.98006131     0.43900
N1611       N  0.99569660  0.74941444  0.20472144    -0.36300
N1612       N  0.99757928  0.69566893  0.25507632    -0.56800
N1613       N  0.98867585  0.74838338  0.30705032    -0.36300
N1614       N  0.99126789  0.80191967  0.25673187    -0.56800
C1615       C  0.00141362  0.72151417  0.18493702     0.27300
C1616       C  0.00046172  0.77746624  0.18599984     0.27300
C1617       C  0.99550254  0.72006084  0.32610840     0.27300
C1618       C  0.99070554  0.77616242  0.32695344     0.27300
C1619       C  0.99644831  0.67553050  0.22776641     0.35900
C1620       C  0.99530307  0.67483542  0.28173454     0.35900
C1621       C  0.98958853  0.82279801  0.22984046     0.35900
C1622       C  0.98467355  0.82225258  0.28356429     0.35900
C1623       C  0.00941791  0.73200626  0.15304064    -0.21600
C1624       C  0.00896251  0.76724165  0.15374401    -0.21600
C1625       C  0.00099123  0.73001400  0.35873326    -0.21600
C1626       C  0.99799816  0.76531682  0.35925410    -0.21600
C1627       C  0.99427915  0.64161139  0.23716995    -0.22600
C1628       C  0.99375395  0.64114359  0.27131545    -0.22600
C1629       C  0.98234248  0.85660687  0.23970123    -0.22600
C1630       C  0.97929997  0.85626889  0.27369755    -0.22600
C1631       C  0.99820197  0.68693489  0.19437031    -0.18000
C1632       C  0.99522498  0.81217050  0.19646410    -0.18000
C1633       C  0.98566968  0.81107949  0.31707956    -0.18000
C1634       C  0.99536493  0.68541658  0.31544643    -0.18000
H1635       H  0.01482800  0.71597890  0.13139020     0.14900
H1636       H  0.01380986  0.78350881  0.13269746     0.14900
H1637       H  0.00652193  0.71356812  0.38006947     0.14900
H1638       H  0.00091095  0.78117721  0.38101465     0.14900
H1639       H  0.99328073  0.61945594  0.22111607     0.13200
H1640       H  0.99216982  0.61856086  0.28670225     0.13200
H1641       H  0.97964209  0.87922985  0.22406087     0.13200
H1642       H  0.97396589  0.87859028  0.28938010     0.13200
H1643       H  0.98547877  0.74949592  0.22846978     0.26500
H1644       H  0.97982233  0.74869764  0.28275451     0.26500
N1645       N  0.74638731  0.99165134  0.20466313    -0.36300
N1646       N  0.69545964  0.98880247  0.25586271    -0.56800
N1647       N  0.74829174  0.99169450  0.30618973    -0.36300
N1648       N  0.79964167  0.99553516  0.25507640    -0.56800
C1649       C  0.71710110  0.99863251  0.18699288     0.27300
C1650       C  0.77264906  0.00209166  0.18624733     0.27300
C1651       C  0.71945324  0.00004963  0.32408520     0.27300
C1652       C  0.77518457  0.00160534  0.32400935     0.27300
C1653       C  0.67699070  0.97960514  0.22944056     0.35900
C1654       C  0.67796640  0.98035889  0.28318939     0.35900
C1655       C  0.81951535  0.99066887  0.22764144     0.35900
C1656       C  0.82055653  0.98960710  0.28166376     0.35900
C1657       C  0.72488773  0.01369360  0.15691359    -0.21600
C1658       C  0.76000806  0.01576633  0.15639111    -0.21600
C1659       C  0.72810790  0.01567239  0.35361829    -0.21600
C1660       C  0.76338802  0.01648862  0.35364556    -0.21600
C1661       C  0.64773333  0.96474207  0.23995157    -0.22600
C1662       C  0.64836232  0.96520440  0.27418690    -0.22600
C1663       C  0.85331878  0.98180593  0.23681838    -0.22600
C1664       C  0.85395770  0.98105156  0.27110796    -0.22600
C1665       C  0.68409977  0.98925793  0.19651333    -0.18000
C1666       C  0.80787330  0.99676569  0.19463414    -0.18000
C1667       C  0.81012815  0.99481203  0.31515184    -0.18000
C1668       C  0.68614111  0.99097124  0.31553515    -0.18000
H1669       H  0.70721093  0.02176297  0.13714630     0.14900
H1670       H  0.77465060  0.02564104  0.13610372     0.14900
H1671       H  0.71089617  0.02477472  0.37343078     0.14900
H1672       H  0.77866777  0.02634858  0.37343239     0.14900
H1673       H  0.62744490  0.95582927  0.22460580     0.13200
H1674       H  0.62864703  0.95668989  0.29053337     0.13200
H1675       H  0.87526331  0.97683006  0.22051553     0.13200
H1676       H  0.87647632  0.97547111  0.28649485     0.13200
H1677       H  0.74896782  0.97671598  0.22610836     0.26500
H1678       H  0.75001116  0.97611566  0.28513138     0.26500
C1679       C  0.66203147  0.96609241  0.14413579    -0.05400
C1680       C  0.65641438  0.98894938  0.17089593     0.00500
C1681       C  0.62479742  0.00962820  0.17279510    -0.08100
C1682       C  0.59997513  0.00599952  0.14803209    -0.05500
C1683       C  0.60667637  0.98526626  0.11986651     0.00500
C1684       C  0.63802592  0.96418587  0.11821345    -0.08000
C1685       C  0.64662957  0.93974158  0.08947425     0.62400
H1686       H  0.68607252  0.95021577  0.14331265     0.13100
H1687       H  0.57558315  0.02117976  0.14991936     0.13100
C1688       C  0.61574826  0.03659829  0.19934121     0.62600
F1689       F  0.67334393  0.91568186  0.09740351    -0.22600
F1690       F  0.65646139  0.95813568  0.06211545    -0.19900
F1691       F  0.62012925  0.41869494  0.07860926    -0.19600
F1692       F  0.60425601  0.06718694  0.18418429    -0.19600
F1693       F  0.64517559  0.53707923  0.21817372    -0.19900
F1694       F  0.59421621  0.51393730  0.22311815    -0.22600
C1695       C  0.60524190  0.50930479  0.36462745    -0.05400
C1696       C  0.60833231  0.98854344  0.39165682     0.00500
C1697       C  0.64000005  0.96805166  0.39429127    -0.08100
C1698       C  0.66436288  0.96965619  0.36868473    -0.05500
C1699       C  0.65896791  0.99201663  0.34159054     0.00500
C1700       C  0.62757506  0.01283919  0.33911238    -0.08000
C1701       C  0.62858427  0.53988027  0.31492200     0.62400
H1702       H  0.58257907  0.52704869  0.36361247     0.13100
H1703       H  0.68840308  0.95381272  0.36987681     0.13100
C1704       C  0.64852246  0.94450608  0.42374435     0.62600
F1705       F  0.60602867  0.06993044  0.32650170    -0.22600
F1706       F  0.59570160  0.02803780  0.29042554    -0.19900
F1707       F  0.65828603  0.55697615  0.31662939    -0.19600
F1708       F  0.62104439  0.92542760  0.43096955    -0.19600
F1709       F  0.65579336  0.45705985  0.44973009    -0.19900
F1710       F  0.67672672  0.92166814  0.41740091    -0.22600
C1711       C  0.85046980  0.02932138  0.16444004    -0.05400
C1712       C  0.83384164  0.99889276  0.16767456     0.00500
C1713       C  0.84232160  0.97106419  0.14580120    -0.08100
C1714       C  0.86723971  0.97480724  0.12102518    -0.05500
C1715       C  0.88402321  0.00507594  0.11797847     0.00500
C1716       C  0.87561922  0.03287672  0.13976366    -0.06900
C1717       C  0.89154912  0.56655491  0.13392948     0.62400
H1718       H  0.84364498  0.05018110  0.18155819     0.13100
H1719       H  0.87404531  0.95397594  0.10385200     0.13100
C1720       C  0.82531375  0.93753998  0.14876457     0.62600
F1721       F  0.87809513  0.59126143  0.15603204    -0.22600
F1722       F  0.88663142  0.57915368  0.10191960    -0.19900
F1723       F  0.92761789  0.05994446  0.14390253    -0.19600
F1724       F  0.78926364  0.44336834  0.14056395    -0.19600
F1725       F  0.82842941  0.92515463  0.18098109    -0.19900
F1726       F  0.84020560  0.91262018  0.12760557    -0.22600
C1727       C  0.85370084  0.52373141  0.34419795    -0.05400
C1728       C  0.83681677  0.99578621  0.34172121     0.00500
C1729       C  0.84313577  0.96873472  0.36500164    -0.08100
C1730       C  0.86763299  0.97224803  0.39032143    -0.05500
C1731       C  0.88659708  0.00125695  0.39222420     0.00500
C1732       C  0.87834546  0.52615520  0.36955558    -0.08000
C1733       C  0.89655687  0.55873899  0.37337179     0.62400
H1734       H  0.84800162  0.54494010  0.32719093     0.13100
H1735       H  0.87271041  0.95201439  0.40852871     0.13100
C1736       C  0.82504723  0.93582440  0.36225135     0.62600
F1737       F  0.88348594  0.58415058  0.35184789    -0.22600
F1738       F  0.93114074  0.55191824  0.36650367    -0.19900
F1739       F  0.89259964  0.57099407  0.40560013    -0.19600
F1740       F  0.83614703  0.91215040  0.38635221    -0.19600
F1741       F  0.83170555  0.92113121  0.33134239    -0.19900
F1742       F  0.78997198  0.94266210  0.36602395    -0.22600
C1743       C  0.96747338  0.62691309  0.12784947    -0.05400
C1744       C  0.99878867  0.61066807  0.11692566     0.00500
C1745       C  0.53069376  0.62067520  0.13136796    -0.08100
C1746       C  0.52808030  0.64524317  0.15706266    -0.05500
C1747       C  0.99758052  0.66073168  0.16748103     0.00500
C1748       C  0.96634378  0.65222756  0.15285046    -0.08000
C1749       C  0.93219652  0.67037162  0.16333635     0.62400
H1750       H  0.94396648  0.62003975  0.11617585     0.13100
H1751       H  0.55104092  0.65415005  0.16821248     0.13100
C1752       C  0.56558065  0.60818893  0.11739530     0.62600
F1753       F  0.90479536  0.65765492  0.14679330    -0.22600
F1754       F  0.93213145  0.70502371  0.15627127    -0.19900
F1755       F  0.92719827  0.66617168  0.19714817    -0.19600
F1756       F  0.56724851  0.61727875  0.08416368    -0.19600
F1757       F  0.57039987  0.57291020  0.12006339    -0.19900
F1758       F  0.59213020  0.62238325  0.13402610    -0.22600
C1759       C  0.53015264  0.64784457  0.35464859    -0.05400
C1760       C  0.99584541  0.65828324  0.34152731     0.00500
C1761       C  0.96505550  0.64677840  0.35456368    -0.08100
C1762       C  0.96723685  0.62149363  0.37957421    -0.05500
C1763       C  0.99904841  0.60805116  0.39202470     0.00500
C1764       C  0.53262068  0.62378152  0.38087262    -0.08000
C1765       C  0.56729339  0.61321227  0.39637907     0.62400
H1766       H  0.55312770  0.65770118  0.34441426     0.13100
H1767       H  0.94405288  0.61246163  0.39010994     0.13100
C1768       C  0.93018644  0.66149859  0.34218326     0.62600
F1769       F  0.59410043  0.62491980  0.37803587    -0.22600
F1770       F  0.57224237  0.57791233  0.39836986    -0.19900
F1771       F  0.56844166  0.62674098  0.42814011    -0.19600
F1772       F  0.92661017  0.65391203  0.30879360    -0.19600
F1773       F  0.92719910  0.69673477  0.34631082    -0.19900
F1774       F  0.90348655  0.64827046  0.35940190    -0.22600
C1775       C  0.51824268  0.85154126  0.15980799    -0.05400
C1776       C  0.99475967  0.83933930  0.17051646     0.00500
C1777       C  0.96488171  0.84935667  0.15169395    -0.08100
C1778       C  0.96677850  0.87485214  0.12731783    -0.05500
C1779       C  0.99703076  0.89095692  0.12170212     0.00500
C1780       C  0.52119805  0.87592653  0.13448314    -0.08000
C1781       C  0.55618438  0.88755701  0.12537280     0.62400
H1782       H  0.54068109  0.84199025  0.17386520     0.13100
H1783       H  0.94420910  0.88241514  0.11247531     0.13100
C1784       C  0.93040434  0.83431564  0.15585170     0.62600
F1785       F  0.58218872  0.87140942  0.14449507    -0.22600
F1786       F  0.55644331  0.92252528  0.13021174    -0.19900
F1787       F  0.56312142  0.87994490  0.09227234    -0.19600
F1788       F  0.90545040  0.86057498  0.16249765    -0.19600
F1789       F  0.92972027  0.81057819  0.18129019    -0.19900
F1790       F  0.92217871  0.81844107  0.12645621    -0.22600
C1791       C  0.51812939  0.85268665  0.34838329    -0.05400
C1792       C  0.98598061  0.83799328  0.34331811     0.00500
C1793       C  0.95576899  0.85142239  0.35982711    -0.08100
C1794       C  0.95867048  0.87627979  0.38486342    -0.05500
C1795       C  0.99044092  0.88887917  0.39244395     0.00500
C1796       C  0.52098351  0.87766153  0.37320962    -0.08000
C1797       C  0.55581979  0.89034902  0.38115627     0.62400
H1798       H  0.54069925  0.84251751  0.33482877     0.13100
H1799       H  0.93611992  0.88635292  0.39851986     0.13100
C1800       C  0.92077392  0.83992243  0.35057802     0.62600
F1801       F  0.58180039  0.87388074  0.36217921    -0.22600
F1802       F  0.56350086  0.88438976  0.41437217    -0.19900
F1803       F  0.55524177  0.92514379  0.37475521    -0.19600
F1804       F  0.91963194  0.80538574  0.35755825    -0.19600
F1805       F  0.91482758  0.84531061  0.31696011    -0.19900
F1806       F  0.89454698  0.85795244  0.36799574    -0.22600
O1807       O  0.48926219  0.90469401  0.94800568    -0.75000
O1808       O  0.49423931  0.94737649  0.90984516    -0.53900
C1809       C  0.49118848  0.91590055  0.91789263     0.78800
O1810       O  0.89964359  0.50466783  0.56169245    -0.59600
O1811       O  0.94220626  0.50408377  0.60088877    -0.52600
C1812       C  0.91136642  0.00529613  0.59257690     0.70800
O1813       O  0.90009075  0.50506213  0.94807648    -0.74100
O1814       O  0.94301901  0.50256441  0.90915876    -0.54700
C1815       C  0.91117309  0.50374929  0.91783096     0.76800
O1816       O  0.49321150  0.90313323  0.56113183    -0.59300
O1817       O  0.49639210  0.94532722  0.60010312    -0.52400
C1818       C  0.99243077  0.91447785  0.59322524     0.73400
Zr1819     Zr  0.49230885  0.92788360  0.00456376     2.54700
O1820       O  0.94252743  0.89391182  0.01062566    -0.79800
O1821       O  0.53503256  0.87799432  0.50494393    -0.93200
Zr1822     Zr  0.92397993  0.50743896  0.00420834     2.64700
O1823       O  0.87833217  0.96695544  0.00461356    -0.98200
O1824       O  0.88504264  0.55667377  0.50313876    -0.80300
O1825       O  0.95850382  0.96553722  0.97384484    -0.83600
O1826       O  0.95804577  0.96731971  0.53827089    -2.18300
O1827       O  0.59314940  0.98267418  0.56029656    -0.67000
O1828       O  0.55090516  0.99019740  0.59926513    -0.51600
C1829       C  0.58268041  0.98425974  0.59064598     0.71800
O1830       O  0.00328126  0.59390213  0.94919012    -0.59900
O1831       O  0.99911470  0.55174759  0.91020453    -0.51900
C1832       C  0.50259331  0.58438870  0.91978197     0.73600
O1833       O  0.99708754  0.59561369  0.55989675    -0.71300
O1834       O  0.99604405  0.55378988  0.59963117    -0.50000
C1835       C  0.99666516  0.58530203  0.59030064     0.75000
O1836       O  0.59283341  0.98775711  0.95030831    -0.66600
O1837       O  0.55099229  0.99338659  0.91082383    -0.53800
C1838       C  0.58211684  0.48461631  0.91924346     0.73300
Zr1839     Zr  0.56842689  0.98963051  0.50478534     2.77500
O1840       O  0.61341509  0.52717827  0.00425777    -0.97400
O1841       O  0.60577189  0.93664294  0.00641051    -0.78200
Zr1842     Zr  0.99679003  0.56949847  0.50477850     2.70100
O1843       O  0.54718679  0.60886367  0.50454088    -0.79500
O1844       O  0.95190715  0.61500641  0.00392234    -0.98500
Zr1845     Zr  0.49643130  0.49935496  0.94103127     2.21500
Zr1846     Zr  0.99673848  0.99871155  0.57010623     2.11100
O1847       O  0.53591618  0.53073744  0.53711368    -2.47200
O1848       O  0.53532435  0.52989092  0.97298535    -0.79200
O1849       O  0.53107554  0.95781832  0.53694710    -0.71400
O1850       O  0.96105268  0.53929052  0.97171985    -2.32400
O1851       O  0.53133690  0.95823216  0.97287483    -2.28600
O1852       O  0.95945674  0.53816918  0.53757424    -0.73200
H1853       H  0.94324880  0.95505282  0.55250584     0.78800
H1854       H  0.94762237  0.55480289  0.95715445     0.79900
H1855       H  0.55091064  0.54296251  0.55114148     0.82100
H1856       H  0.54478406  0.94252973  0.95850784     0.79700
H1857       H  0.88853536  0.57025142  0.02539810     0.42700
H1858       H  0.93724621  0.61135260  0.52515587     0.41700
H1859       H  0.56958624  0.58947318  0.00725391     0.41400
H1860       H  0.60967414  0.54532164  0.51971152     0.39300
H1861       H  0.59453935  0.91957975  0.50077737     0.42500
H1862       H  0.54837963  0.88137829  0.98371411     0.37200
H1863       H  0.92957505  0.89991610  0.98995693     0.43400
H1864       H  0.87898047  0.95713499  0.52191413     0.39800
H1865       H  0.63577594  0.51291174  0.51626933     0.44700
H1866       H  0.52117311  0.85786852  0.50346900     0.43400
H1867       H  0.85687945  0.98176205  0.00827743     0.43600
H1868       H  0.96102071  0.63591723  0.50689567     0.43900
N1869       N  0.98949558  0.74985458  0.70528929    -0.36300
N1870       N  0.99543503  0.69578126  0.75514179    -0.56800
N1871       N  0.99029454  0.74774536  0.80731940    -0.36300
N1872       N  0.98741279  0.80174855  0.75741052    -0.56800
C1873       C  0.99746576  0.72219597  0.68566457     0.27300
C1874       C  0.99449701  0.77816119  0.68700539     0.27300
C1875       C  0.99897622  0.71940144  0.82573143     0.27300
C1876       C  0.99459472  0.77529990  0.82684174     0.27300
C1877       C  0.99268599  0.67592185  0.72785433     0.35900
C1878       C  0.99398773  0.67478360  0.78178358     0.35900
C1879       C  0.98159881  0.82261612  0.73083251     0.35900
C1880       C  0.98136218  0.82141873  0.78478580     0.35900
C1881       C  0.00712904  0.73306871  0.65438469    -0.21600
C1882       C  0.00545608  0.76833496  0.65528330    -0.21600
C1883       C  0.00825575  0.72909930  0.85752778    -0.21600
C1884       C  0.00570089  0.76432894  0.85815573    -0.21600
C1885       C  0.99026023  0.64202918  0.73718536    -0.22600
C1886       C  0.99120879  0.64128763  0.77133993    -0.22600
C1887       C  0.97204609  0.85579093  0.74136512    -0.22600
C1888       C  0.97185159  0.85502154  0.77557655    -0.22600
C1889       C  0.99438773  0.68749295  0.69457096    -0.18000
C1890       C  0.98714410  0.81264758  0.69729085    -0.18000
C1891       C  0.98686016  0.81006055  0.81791799    -0.18000
C1892       C  0.99671319  0.68503234  0.81539317    -0.18000
H1893       H  0.01443095  0.71727710  0.63300122     0.14900
H1894       H  0.01107870  0.78486802  0.63466853     0.14900
H1895       H  0.01579685  0.71259643  0.87833634     0.14900
H1896       H  0.01087490  0.78005407  0.87948782     0.14900
H1897       H  0.98844849  0.62004262  0.72106273     0.13200
H1898       H  0.99016641  0.61862695  0.78671753     0.13200
H1899       H  0.96621586  0.87826745  0.72600534     0.13200
H1900       H  0.96587266  0.87678827  0.79182080     0.13200
H1901       H  0.97739484  0.74952124  0.72829311     0.26500
H1902       H  0.97833505  0.74820552  0.78425448     0.26500
N1903       N  0.74725626  0.98656222  0.70487812    -0.36300
N1904       N  0.69599872  0.98217703  0.75581617    -0.56800
N1905       N  0.74771979  0.98915623  0.80622707    -0.36300
N1906       N  0.79937512  0.99390408  0.75538344    -0.56800
C1907       C  0.71786582  0.99282354  0.68722141     0.27300
C1908       C  0.77302698  0.99862188  0.68682760     0.27300
C1909       C  0.71859335  0.99672217  0.82390654     0.27300
C1910       C  0.77399773  0.00039117  0.82403266     0.27300
C1911       C  0.67812136  0.97210518  0.72929646     0.35900
C1912       C  0.67787308  0.97496371  0.78318877     0.35900
C1913       C  0.81975690  0.98926132  0.72828650     0.35900
C1914       C  0.82010152  0.98939659  0.78223413     0.35900
C1915       C  0.72510056  0.00925566  0.65766820    -0.21600
C1916       C  0.75998555  0.01270843  0.65733664    -0.21600
C1917       C  0.72647706  0.01318896  0.85324355    -0.21600
C1918       C  0.76156536  0.01524517  0.85343625    -0.21600
C1919       C  0.64865923  0.95758585  0.73988321    -0.22600
C1920       C  0.64838486  0.95962461  0.77415754    -0.22600
C1921       C  0.85366917  0.98202726  0.73791833    -0.22600
C1922       C  0.85387654  0.98204354  0.77219589    -0.22600
C1923       C  0.68528646  0.98188452  0.69627489    -0.18000
C1924       C  0.80829546  0.99436315  0.69516907    -0.18000
C1925       C  0.80907716  0.99477447  0.81546235    -0.18000
C1926       C  0.68573107  0.98637681  0.81545756    -0.18000
H1927       H  0.70722326  0.01744025  0.63810769     0.14900
H1928       H  0.77422007  0.02387583  0.63746881     0.14900
H1929       H  0.70890274  0.02206344  0.87285172     0.14900
H1930       H  0.77630737  0.02599022  0.87314165     0.14900
H1931       H  0.62857241  0.94833322  0.72449818     0.13200
H1932       H  0.62818879  0.95199973  0.79043277     0.13200
H1933       H  0.87594720  0.97772200  0.72192697     0.13200
H1934       H  0.87634415  0.97780030  0.78790738     0.13200
H1935       H  0.75033825  0.97116308  0.72600495     0.26500
H1936       H  0.75021874  0.97327632  0.78541636     0.26500
C1937       C  0.66474709  0.96179599  0.64165161    -0.05400
C1938       C  0.65778746  0.98188329  0.67027093     0.00500
C1939       C  0.62567502  0.00154829  0.67278003    -0.08100
C1940       C  0.60126280  0.99863125  0.64752406    -0.05500
C1941       C  0.60899598  0.98077489  0.61774744     0.00500
C1942       C  0.64161447  0.96183469  0.61466906    -0.08000
C1943       C  0.65242978  0.94155747  0.58351700     0.62400
H1944       H  0.68934888  0.94695807  0.64017665     0.13100
H1945       H  0.57629811  0.01249473  0.65042285     0.13100
C1946       C  0.61571275  0.02714078  0.70033321     0.62600
F1947       F  0.68313735  0.92180205  0.58800080    -0.22600
F1948       F  0.65712816  0.96380121  0.55738835    -0.19900
F1949       F  0.61787622  0.42247777  0.58041112    -0.19600
F1950       F  0.60345526  0.05805190  0.68630661    -0.19600
F1951       F  0.65968320  0.56008017  0.69073120    -0.19900
F1952       F  0.62383176  0.53329946  0.72412517    -0.22600
C1953       C  0.60214945  0.50294054  0.86419976    -0.05400
C1954       C  0.60931327  0.98678975  0.89328601     0.00500
C1955       C  0.64091451  0.96611880  0.89596178    -0.08100
C1956       C  0.66444170  0.96616331  0.86940421    -0.05500
C1957       C  0.65868748  0.98770043  0.84169411     0.00500
C1958       C  0.62798950  0.00956053  0.83982834    -0.08000
C1959       C  0.62005489  0.53507225  0.81453693     0.62400
H1960       H  0.57853138  0.51942347  0.86286676     0.13100
H1961       H  0.68824515  0.94993524  0.87035500     0.13100
C1962       C  0.64997593  0.94361979  0.92612550     0.62600
F1963       F  0.60929380  0.06763899  0.82857322    -0.22600
F1964       F  0.59537209  0.02724480  0.79224319    -0.19900
F1965       F  0.64791598  0.54058526  0.79457206    -0.19600
F1966       F  0.62376697  0.92267737  0.93258842    -0.19600
F1967       F  0.65566318  0.45370247  0.94984250    -0.19900
F1968       F  0.67988257  0.92271503  0.92120436    -0.22600
C1969       C  0.85026956  0.02761860  0.66478666    -0.05400
C1970       C  0.83434309  0.99682772  0.66825656     0.00500
C1971       C  0.84372570  0.96888177  0.64678827    -0.08100
C1972       C  0.86904161  0.97278296  0.62233816    -0.05500
C1973       C  0.88515487  0.00347733  0.61902525     0.00500
C1974       C  0.87569664  0.03141513  0.64040071    -0.06900
C1975       C  0.89386167  0.56468325  0.63726019     0.62400
H1976       H  0.84264237  0.04860649  0.68150774     0.13100
H1977       H  0.87671218  0.95174358  0.60567752     0.13100
C1978       C  0.82736291  0.93501732  0.65008248     0.62600
F1979       F  0.87985130  0.58962757  0.65886982    -0.22600
F1980       F  0.89006105  0.57718282  0.60511349    -0.19900
F1981       F  0.92708048  0.05960850  0.64381474    -0.19600
F1982       F  0.79080983  0.44209565  0.64419904    -0.19600
F1983       F  0.83291066  0.92189291  0.68179204    -0.19900
F1984       F  0.84091612  0.91087244  0.62744965    -0.22600
C1985       C  0.85199819  0.52391366  0.84388355    -0.05400
C1986       C  0.83532578  0.99622688  0.84221727     0.00500
C1987       C  0.84360633  0.96806513  0.86374497    -0.08100
C1988       C  0.86859772  0.97122896  0.88856297    -0.05500
C1989       C  0.88599291  0.00111186  0.89169302     0.00500
C1990       C  0.87749798  0.52815860  0.86798105    -0.08000
C1991       C  0.89568702  0.56101342  0.86891459     0.62400
H1992       H  0.84546647  0.54396526  0.82581588     0.13100
H1993       H  0.87522811  0.95012363  0.90546730     0.13100
C1994       C  0.82679581  0.93455429  0.85983027     0.62600
F1995       F  0.88314355  0.58420958  0.84494668    -0.22600
F1996       F  0.93041282  0.55366150  0.86310861    -0.19900
F1997       F  0.89106842  0.57634387  0.89981932    -0.19600
F1998       F  0.83932020  0.91012211  0.88265906    -0.19600
F1999       F  0.83321368  0.92155994  0.82820010    -0.19900
F2000       F  0.79168977  0.93998150  0.86452752    -0.22600
C2001       C  0.96516449  0.62708719  0.62764337    -0.05400
C2002       C  0.99679660  0.61184648  0.61641173     0.00500
C2003       C  0.53475881  0.62406735  0.62746303    -0.08100
C2004       C  0.53382786  0.64724178  0.65431369    -0.05500
C2005       C  0.99438410  0.66152979  0.66740975     0.00500
C2006       C  0.96339845  0.65210728  0.65293343    -0.08000
C2007       C  0.92874380  0.66832342  0.66441490     0.62400
H2008       H  0.94184392  0.61923114  0.61636804     0.13100
H2009       H  0.55721781  0.65758577  0.66291391     0.13100
C2010       C  0.56795750  0.61596280  0.60833441     0.62600
F2011       F  0.90205304  0.65766095  0.64530431    -0.22600
F2012       F  0.92807926  0.70368438  0.66201489    -0.19900
F2013       F  0.92308704  0.65936723  0.69716805    -0.19600
F2014       F  0.56423212  0.62900514  0.57641016    -0.19600
F2015       F  0.57559964  0.58092138  0.60651953    -0.19900
F2016       F  0.59544353  0.63040255  0.62314498    -0.22600
C2017       C  0.53378827  0.64731039  0.85657855    -0.05400
C2018       C  0.99781183  0.65814415  0.84161493     0.00500
C2019       C  0.96723550  0.64676547  0.85531391    -0.08100
C2020       C  0.96994893  0.62148367  0.88015066    -0.05500
C2021       C  0.00191179  0.60897809  0.89272075     0.00500
C2022       C  0.53485851  0.62265093  0.88219333    -0.08000
C2023       C  0.56892224  0.60986989  0.89764550     0.62400
H2024       H  0.55736129  0.65638252  0.84686654     0.13100
H2025       H  0.94702861  0.61192347  0.89074410     0.13100
C2026       C  0.93198894  0.66199583  0.84447614     0.62600
F2027       F  0.59631489  0.62465078  0.88296692    -0.22600
F2028       F  0.57398726  0.57471830  0.89402211    -0.19900
F2029       F  0.56870040  0.61783727  0.93119888    -0.19600
F2030       F  0.92670994  0.65482883  0.81126562    -0.19600
F2031       F  0.92968385  0.69718669  0.84900594    -0.19900
F2032       F  0.90589797  0.64890514  0.86277253    -0.22600
C2033       C  0.51707697  0.85886853  0.66820675    -0.05400
C2034       C  0.98726855  0.83996768  0.67142284     0.00500
C2035       C  0.95776664  0.84986803  0.65216962    -0.08100
C2036       C  0.96037975  0.87439474  0.62674790    -0.05500
C2037       C  0.99140011  0.88914827  0.62045690     0.00500
C2038       C  0.51982553  0.88425799  0.64368854    -0.08000
C2039       C  0.55032176  0.90617356  0.64430156     0.62400
H2040       H  0.53645775  0.85520848  0.68746187     0.13100
H2041       H  0.93820655  0.88232505  0.61158256     0.13100
C2042       C  0.92384449  0.83446626  0.65862117     0.62600
F2043       F  0.57381568  0.89567988  0.66880590    -0.22600
F2044       F  0.53917049  0.93998322  0.65062701    -0.19900
F2045       F  0.56712863  0.90393553  0.61394486    -0.19600
F2046       F  0.89811789  0.84810948  0.63767801    -0.19600
F2047       F  0.91349523  0.84096828  0.69111540    -0.19900
F2048       F  0.92762559  0.79936580  0.65358738    -0.22600
C2049       C  0.51472048  0.85984103  0.84246007    -0.05400
C2050       C  0.98740457  0.83631316  0.84467405     0.00500
C2051       C  0.95840373  0.84523870  0.86498473    -0.08100
C2052       C  0.96120342  0.86981809  0.89024985    -0.05500
C2053       C  0.99190729  0.88548294  0.89535634     0.00500
C2054       C  0.51667795  0.88571741  0.86657394    -0.08000
C2055       C  0.54748656  0.90720440  0.86682534     0.62400
H2056       H  0.53495788  0.85541037  0.82410819     0.13100
H2057       H  0.93936509  0.87723911  0.90608053     0.13100
C2058       C  0.92478020  0.82892097  0.85973963     0.62600
F2059       F  0.57241256  0.89524161  0.84418834    -0.22600
F2060       F  0.56229086  0.90632900  0.89812516    -0.19900
F2061       F  0.53712258  0.94076482  0.85851466    -0.19600
F2062       F  0.92944962  0.79401329  0.86571391    -0.19600
F2063       F  0.91369105  0.83427654  0.82731685    -0.19900
F2064       F  0.89919783  0.84264765  0.88085522    -0.22600
loop_ 
_geom_bond_atom_site_label_1 
_geom_bond_atom_site_label_2 
_geom_bond_distance 
_geom_bond_site_symmetry_2 
_ccdc_geom_bond_type 
O1          Zr13   2.443       .  S
O1            C3   1.288       .  A
O2         Zr555   2.415       .  S
O2            C3   1.284       .  A
C3         C1279   1.467       .  S
O4         Zr274   2.462       .  S
O4          C522   1.291       .  A
O5         Zr556   2.427   1_545  S
O5          C522   1.286       .  A
C6          O520   1.289       .  A
C6          O521   1.287       .  A
C6          C167   1.477       .  S
O7          Zr16   2.451       .  S
O7            C9   1.290       .  A
O8        Zr1071   2.418   1_545  S
O8            C9   1.285       .  A
C9          C699   1.475       .  S
O10        Zr271   2.450       .  S
O10        C1044   1.289       .  A
O11       Zr1072   2.416       .  S
O11        C1044   1.285       .  A
C12        O1042   1.292       .  A
C12        O1043   1.284       .  A
C12         C231   1.484       .  S
Zr13        O268   2.452       .  S
Zr13         O45   2.373   1_655  S
Zr13       O1051   2.374       .  S
Zr13       O1310   2.367       .  S
Zr13        O301   2.373   1_655  S
Zr13       O1046   2.435       .  S
Zr13        O273   2.435   1_655  S
O14       Zr1045   2.435       .  S
O14          H57   0.990       .  S
O15        Zr271   2.436   1_455  S
O15          H60   0.990       .  S
O15         H314   0.990   1_554  S
Zr16        O262   2.453       .  S
Zr16         O44   2.373       .  S
Zr16        O794   2.373   1_545  S
Zr16        O535   2.371   1_545  S
Zr16        O304   2.375       .  S
Zr16        O533   2.436   1_545  S
Zr16        O276   2.435       .  S
O17        Zr532   2.438       .  S
O17          H61   0.990       .  S
O17         H316   0.990       .  S
O18        Zr274   2.434       .  S
O18         H309   0.990       .  S
O19       Zr1045   2.369       .  S
O19        Zr532   2.371       .  S
O19       Zr1587   2.385       .  S
O20         Zr40   2.388       .  S
O20       Zr1303   2.363       .  S
O20        Zr790   2.377       .  S
O20          H47   0.965       .  S
O21         Zr33   2.439       .  S
O21          C23   1.285       .  A
O22       Zr1072   2.446   1_455  S
O22          C23   1.292       .  A
C23         C135   1.497       .  S
O24        Zr294   2.431       .  S
O24        C1058   1.285       .  A
O25       Zr1071   2.437   1_545  S
O25        C1058   1.288       .  A
C26        O1056   1.287       .  A
C26        O1057   1.289       .  A
C26        C1247   1.480       .  S
O27         Zr36   2.430       .  S
O27          C29   1.284       .  A
O28        Zr556   2.442   1_545  S
O28          C29   1.290       .  A
C29         C196   1.473       .  S
O30        Zr291   2.441       .  S
O30         C548   1.286       .  A
O31        Zr555   2.431   1_455  S
O31         C548   1.288       .  A
C32         O546   1.286       .  A
C32         O547   1.288       .  A
C32         C664   1.483       .  S
Zr33        O288   2.439   1_554  S
Zr33         O43   2.370       .  S
Zr33        O557   2.373       .  S
Zr33        O816   2.369   1_554  S
Zr33        O303   2.370   1_554  S
Zr33        O808   2.436       .  S
Zr33        O293   2.433       .  S
O34        Zr807   2.437   1_545  S
O34         H312   0.990       .  S
O34         H317   0.990       .  S
O35        Zr291   2.434       .  S
O35         H313   0.989       .  S
Zr36        O282   2.437   1_554  S
Zr36         O46   2.378       .  S
Zr36       O1332   2.373   1_554  S
Zr36       O1073   2.374       .  S
Zr36        O302   2.371   1_554  S
Zr36       O1069   2.435       .  S
Zr36        O296   2.435       .  S
O37       Zr1068   2.432   1_455  S
O37         H311   0.990   1_554  S
O38        Zr294   2.435       .  S
O38         H310   0.990       .  S
O38         H320   0.990       .  S
Zr39        O518   2.417       .  S
Zr39       O1040   2.425   1_565  S
Zr39       O1057   2.443   1_665  S
Zr39        O547   2.426   1_655  S
Zr39         O42   2.378   1_665  S
Zr39       O1567   2.382       .  S
Zr39       O1076   2.380   1_565  S
Zr39        O561   2.390   1_655  S
Zr40        O521   2.427       .  S
Zr40       O1043   2.418       .  S
Zr40       O1054   2.430       .  S
Zr40        O544   2.429       .  S
Zr40       O1589   2.382       .  S
Zr40       O1075   2.381       .  S
Zr40        O562   2.385       .  S
O41        Zr549   2.374   1_545  S
O41       Zr1068   2.369   1_455  S
O41       Zr1588   2.380   1_455  S
O41          H49   0.966       .  S
O42        Zr807   2.378   1_545  S
O42       Zr1326   2.372       .  S
O43        Zr271   2.375   1_455  S
O43       Zr1072   2.382   1_455  S
O44        Zr294   2.374       .  S
O44       Zr1071   2.386   1_545  S
O44          H48   0.966       .  S
O45        Zr291   2.361       .  S
O45        Zr555   2.387   1_455  S
O45          H50   0.966       .  S
O46        Zr274   2.376       .  S
O46        Zr556   2.383   1_545  S
H51         O276   0.990       .  S
H52         O296   0.990       .  S
H53         O295   0.990       .  S
H54         O292   0.990   1_556  S
H55         O293   0.990       .  S
H56         O273   0.990       .  S
H58         O275   0.990       .  S
H59         O292   0.990       .  S
H62         O296   0.990       .  S
N63          C68   1.353       .  A
N63          C67   1.354       .  A
N63          H95   1.038       .  S
N64          C71   1.353       .  A
N64          C72   1.352       .  A
N65          C70   1.354       .  A
N65          C69   1.352       .  A
N65          H96   1.038       .  S
N66          C73   1.352       .  A
N66          C74   1.352       .  A
C67          C75   1.386       .  A
C67          C83   1.414       .  A
C68          C84   1.418       .  A
C68          C76   1.388       .  A
C69          C77   1.388       .  A
C69          C86   1.414       .  A
C70          C85   1.415       .  A
C70          C78   1.387       .  A
C71          C83   1.414       .  A
C71          C79   1.386       .  A
C72          C86   1.415       .  A
C72          C80   1.387       .  A
C73          C81   1.387       .  A
C73          C84   1.416       .  A
C74          C82   1.386       .  A
C74          C85   1.415       .  A
C75          C76   1.374       .  A
C75          H87   1.082       .  S
C76          H88   1.082       .  S
C77          C78   1.374       .  A
C77          H89   1.082       .  S
C78          H90   1.082       .  S
C79          C80   1.373       .  A
C79          H91   1.082       .  S
C80          H92   1.082       .  S
C81          C82   1.373       .  A
C81          H93   1.082       .  S
C82          H94   1.083       .  S
C83         C199   1.492       .  S
C84         C228   1.492       .  S
C85         C244   1.490       .  S
C86         C212   1.486       .  S
N97         C102   1.352       .  A
N97         C101   1.354       .  A
N97         H129   1.041       .  S
N98         C105   1.349       .  A
N98         C106   1.348       .  A
N99         C104   1.352       .  A
N99         C103   1.353       .  A
N99         H130   1.041       .  S
N100        C107   1.352       .  A
N100        C108   1.352       .  A
C101        C109   1.387       .  A
C101        C117   1.417       .  A
C102        C118   1.413       .  A
C102        C110   1.387       .  A
C103        C111   1.388       .  A
C103        C120   1.418       .  A
C104        C119   1.413       .  A
C104        C112   1.386       .  A
C105        C117   1.412       .  A
C105        C113   1.386       .  A
C106        C120   1.412       .  A
C106        C114   1.386       .  A
C107        C115   1.386       .  A
C107        C118   1.414       .  A
C108        C116   1.387       .  A
C108        C119   1.415       .  A
C109        C110   1.377       .  A
C109        H121   1.082       .  S
C110        H122   1.082       .  S
C111        C112   1.377       .  A
C111        H123   1.082       .  S
C112        H124   1.082       .  S
C113        C114   1.378       .  A
C113        H125   1.082       .  S
C114        H126   1.082       .  S
C115        C116   1.377       .  A
C115        H127   1.082       .  S
C116        H128   1.082       .  S
C117        C132   1.495       .  S
C118        C164   1.490       .  S
C119        C180   1.492       .  S
C120        C151   1.495       .  S
C131        C132   1.403       .  A
C131        C136   1.410       .  A
C131        H138   1.083       .  S
C132        C133   1.419       .  A
C133        C134   1.405       .  A
C133        C140   1.520       .  S
C134        C135   1.405       .  A
C134        H139   1.082       .  S
C135        C136   1.427       .  A
C136        C137   1.520       .  S
C137        F141   1.385       .  S
C137        F142   1.382       .  S
C137        F659   1.382       .  S
C140        F144   1.383       .  S
C140        F661   1.381       .  S
C140        F662   1.382       .  S
F143        C653   1.379       .  S
F145        C656   1.381       .  S
F146        C656   1.383       .  S
C147        C664   1.403   1_545  A
C147        C668   1.403       .  A
C147        H154   1.082       .  S
C148        C548   1.493       .  S
C148        C149   1.425       .  A
C148        C663   1.406       .  A
C149        C150   1.407       .  A
C149        C156   1.521       .  S
C150        C151   1.403       .  A
C150        H155   1.083       .  S
C151        C152   1.420       .  A
C152        C663   1.406       .  A
C152        C669   1.520       .  S
C153        C668   1.521       .  S
C153        F159   1.383       .  S
C153        F673   1.385       .  S
C153        F674   1.379       .  S
C156        F160   1.382       .  S
C156        F162   1.385       .  S
C156        F677   1.383       .  S
F157        C669   1.384       .  S
F158        C669   1.382       .  S
F161        C672   1.382       .  S
C163        C164   1.403       .  A
C163        C168   1.408       .  A
C163        H170   1.083       .  S
C164        C165   1.417       .  A
C165        C166   1.407       .  A
C165        C172   1.519       .  S
C166        C167   1.401       .  A
C166        H171   1.083       .  S
C167        C168   1.414       .  A
C168        C685   1.513       .  S
C169        C684   1.513       .  S
C169        F173   1.384       .  S
C169        F174   1.383       .  S
C169        F691   1.382       .  S
C172        F177   1.383       .  S
C172        F178   1.384       .  S
C172        F692   1.382       .  S
F175        C685   1.381       .  S
F176        C688   1.383       .  S
C179        C184   1.408       .  A
C179        C696   1.403       .  A
C179        H186   1.083       .  S
C180        C181   1.422       .  A
C180        C695   1.404       .  A
C181        C182   1.407       .  A
C181        C188   1.520       .  S
C182        C183   1.402       .  A
C182        H187   1.085       .  S
C183        C525   1.480       .  S
C183        C700   1.416       .  A
C184        C699   1.416       .  A
C184        C185   1.515       .  S
C185        F189   1.384       .  S
C185        F190   1.382       .  S
C185        F191   1.383       .  S
C188        F192   1.384       .  S
C188        F193   1.381       .  S
C188        F194   1.383       .  S
C195        C196   1.399       .  A
C195        C200   1.405       .  A
C195        H202   1.082       .  S
C196       C1229   1.415       .  A
C197        C198   1.407       .  A
C197       C1228   1.415   1_455  A
C197        C204   1.517       .  S
C198       C1231   1.403       .  A
C198        H203   1.083       .  S
C199        C200   1.417       .  A
C199       C1230   1.405       .  A
C200        C201   1.517       .  S
C201        F205   1.384       .  S
C201        F206   1.383       .  S
C201        F207   1.382       .  S
C204        F208   1.382       .  S
C204        F209   1.381       .  S
C204        F210   1.384       .  S
C211        C216   1.409       .  A
C211       C1244   1.403       .  A
C211        H218   1.083       .  S
C212        C213   1.416       .  A
C212       C1243   1.403       .  A
C213        C214   1.405       .  A
C213        C220   1.520       .  S
C214        C215   1.400       .  A
C214        H219   1.081       .  S
C215       C1058   1.472       .  S
C215       C1248   1.414       .  A
C216       C1247   1.416       .  A
C216        C217   1.516       .  S
C217        F221   1.384       .  S
C217        F222   1.380       .  S
C217        F223   1.382       .  S
C220        F224   1.382       .  S
C220        F225   1.383       .  S
C220        F226   1.384       .  S
C227        C232   1.403       .  A
C227       C1260   1.400   1_455  A
C227        H234   1.083       .  S
C228        C229   1.419       .  A
C228       C1259   1.403       .  A
C229        C230   1.406       .  A
C229        C236   1.519       .  S
C230        C231   1.403       .  A
C230        H235   1.085       .  S
C231       C1264   1.421       .  A
C232       C1263   1.413   1_455  A
C232        C233   1.515       .  S
C233        F237   1.384       .  S
C233        F238   1.380       .  S
C233        F239   1.383       .  S
C236        F240   1.384       .  S
C236        F241   1.382       .  S
C236        F242   1.383       .  S
C243        C248   1.402       .  A
C243       C1276   1.400   1_455  A
C243        H250   1.083       .  S
C244        C245   1.417       .  A
C244       C1275   1.401       .  A
C245        C246   1.408       .  A
C245        C252   1.517       .  S
C246        C247   1.403       .  A
C246        H251   1.083       .  S
C247       C1035   1.477       .  S
C247       C1280   1.417       .  A
C248       C1279   1.416   1_455  A
C248        C249   1.516       .  S
C249        F253   1.385       .  S
C249        F254   1.382       .  S
C249        F255   1.380       .  S
C252        F256   1.382       .  S
C252        F257   1.383       .  S
C252        F258   1.385       .  S
O259       Zr271   2.439   1_556  S
O259        C261   1.287       .  A
O260       Zr813   2.430       .  S
O260        C261   1.287       .  A
C261       C1537   1.475       .  S
O262        C780   1.289       .  A
O263       Zr814   2.432   1_545  S
O263        C780   1.287       .  A
C264        O778   1.289       .  A
C264        O779   1.286       .  A
C264        C425   1.477       .  S
O265       Zr274   2.455   1_556  S
O265        C267   1.290       .  A
O266      Zr1329   2.412   1_545  S
O266        C267   1.284       .  A
C267        C957   1.475       .  S
O268       C1302   1.289       .  A
O269      Zr1330   2.423       .  S
O269       C1302   1.286       .  A
C270       O1300   1.287       .  A
C270       O1301   1.285       .  A
C270        C489   1.468       .  S
Zr271      O1309   2.368   1_554  S
Zr271      O1052   2.363       .  S
Zr271       O303   2.376   1_654  S
Zr271      O1304   2.434       .  S
O272      Zr1303   2.434       .  S
O272        H315   0.990   1_554  S
O273        H318   0.990       .  S
Zr274       O536   2.372   1_545  S
Zr274       O793   2.372   1_544  S
Zr274       O302   2.373   1_554  S
Zr274       O791   2.436   1_545  S
O275       Zr790   2.437       .  S
O275        H319   0.990       .  S
O277      Zr1303   2.374   1_556  S
O277       Zr790   2.372   1_556  S
O277      Zr1845   2.385       .  S
O278      Zr1045   2.367       .  S
O278       Zr532   2.373       .  S
O278       Zr298   2.389       .  S
O278        H305   0.965       .  S
O279       Zr291   2.436       .  S
O279        C281   1.285       .  A
O280      Zr1330   2.433   1_455  S
O280        C281   1.289       .  A
C281        C393   1.490       .  S
O282       C1316   1.286       .  A
O283      Zr1329   2.436   1_545  S
O283       C1316   1.288       .  A
C284       O1314   1.285       .  A
C284       O1315   1.288   1_455  A
C284       C1505   1.470       .  S
O285       Zr294   2.429       .  S
O285        C287   1.284       .  A
O286       Zr814   2.433   1_545  S
O286        C287   1.288       .  A
C287        C454   1.469       .  S
O288        C806   1.286       .  A
O289       Zr813   2.428   1_455  S
O289        C806   1.288       .  A
C290        O804   1.285       .  A
C290        O805   1.289       .  A
C290        C922   1.489       .  S
Zr291       O815   2.373       .  S
Zr291       O558   2.373       .  S
Zr291       O301   2.371       .  S
Zr291       O550   2.434       .  S
O292       Zr549   2.436   1_545  S
Zr294      O1074   2.371       .  S
Zr294      O1331   2.372       .  S
Zr294       O304   2.375       .  S
Zr294      O1327   2.435       .  S
O295      Zr1326   2.434       .  S
Zr297       O776   2.422       .  S
Zr297      O1298   2.426   1_565  S
Zr297      O1315   2.434   1_565  S
Zr297       O805   2.431   1_655  S
Zr297      O1825   2.382       .  S
Zr297       O300   2.379   1_665  S
Zr297      O1334   2.384   1_565  S
Zr297       O819   2.382   1_655  S
Zr298       O779   2.427       .  S
Zr298      O1301   2.420       .  S
Zr298      O1312   2.426       .  S
Zr298       O802   2.431       .  S
Zr298      O1847   2.381       .  S
Zr298      O1333   2.383       .  S
Zr298       O820   2.380       .  S
O299       Zr807   2.371   1_545  S
O299      Zr1326   2.377       .  S
O299      Zr1846   2.384   1_445  S
O299        H307   0.966       .  S
O300       Zr549   2.377   1_546  S
O300      Zr1068   2.376   1_456  S
O301      Zr1330   2.384   1_455  S
O302      Zr1329   2.383   1_545  S
O302        H306   0.965       .  S
O303       Zr813   2.385   1_455  S
O303        H308   0.966       .  S
O304       Zr814   2.383   1_545  S
N321        C326   1.353       .  A
N321        C325   1.352       .  A
N321        H353   1.035       .  S
N322        C329   1.352       .  A
N322        C330   1.351       .  A
N323        C328   1.355       .  A
N323        C327   1.355       .  A
N323        H354   1.036       .  S
N324        C331   1.351       .  A
N324        C332   1.352       .  A
C325        C333   1.387       .  A
C325        C341   1.415       .  A
C326        C342   1.417       .  A
C326        C334   1.388       .  A
C327        C335   1.387       .  A
C327        C344   1.418       .  A
C328        C343   1.418       .  A
C328        C336   1.387       .  A
C329        C341   1.414       .  A
C329        C337   1.386       .  A
C330        C344   1.414       .  A
C330        C338   1.387       .  A
C331        C339   1.387       .  A
C331        C342   1.415       .  A
C332        C340   1.386       .  A
C332        C343   1.414       .  A
C333        C334   1.375       .  A
C333        H345   1.082       .  S
C334        H346   1.082       .  S
C335        C336   1.374       .  A
C335        H347   1.082       .  S
C336        H348   1.082       .  S
C337        C338   1.371       .  A
C337        H349   1.082       .  S
C338        H350   1.082       .  S
C339        C340   1.372       .  A
C339        H351   1.082       .  S
C340        H352   1.082       .  S
C341        C457   1.486       .  S
C342        C486   1.484       .  S
C343        C502   1.491       .  S
C344        C470   1.490       .  S
N355        C360   1.352       .  A
N355        C359   1.353       .  A
N355        H387   1.041       .  S
N356        C363   1.347       .  A
N356        C364   1.347       .  A
N357        C362   1.352       .  A
N357        C361   1.353       .  A
N357        H388   1.040       .  S
N358        C365   1.351       .  A
N358        C366   1.351       .  A
C359        C367   1.388       .  A
C359        C375   1.417       .  A
C360        C376   1.412       .  A
C360        C368   1.386       .  A
C361        C369   1.388       .  A
C361        C378   1.418       .  A
C362        C377   1.414       .  A
C362        C370   1.386       .  A
C363        C375   1.410       .  A
C363        C371   1.386       .  A
C364        C378   1.411       .  A
C364        C372   1.387       .  A
C365        C373   1.386       .  A
C365        C376   1.412       .  A
C366        C374   1.386       .  A
C366        C377   1.412       .  A
C367        C368   1.377       .  A
C367        H379   1.082       .  S
C368        H380   1.082       .  S
C369        C370   1.379       .  A
C369        H381   1.082       .  S
C370        H382   1.082       .  S
C371        C372   1.377       .  A
C371        H383   1.082       .  S
C372        H384   1.082       .  S
C373        C374   1.375       .  A
C373        H385   1.082       .  S
C374        H386   1.082       .  S
C375        C390   1.490       .  S
C376        C422   1.490       .  S
C377        C438   1.491       .  S
C378        C409   1.490       .  S
C389        C390   1.401       .  A
C389        C394   1.406       .  A
C389        H396   1.083       .  S
C390        C391   1.419       .  A
C391        C392   1.404       .  A
C391        C398   1.521       .  S
C392        C393   1.405       .  A
C392        H397   1.082       .  S
C393        C394   1.425       .  A
C394        C395   1.521       .  S
C395        F399   1.384       .  S
C395        F400   1.383       .  S
C395        F917   1.382       .  S
C398        F402   1.384       .  S
C398        F919   1.381       .  S
C398        F920   1.382       .  S
F401        C911   1.381       .  S
F403        C914   1.381       .  S
F404        C914   1.382       .  S
C405        C922   1.403   1_545  A
C405        C926   1.402       .  A
C405        H412   1.083       .  S
C406        C806   1.487       .  S
C406        C921   1.404       .  A
C406        C407   1.422       .  A
C407        C408   1.406       .  A
C407        C414   1.520       .  S
C408        C409   1.402       .  A
C408        H413   1.083       .  S
C409        C410   1.421       .  A
C410        C921   1.404       .  A
C410        C927   1.520       .  S
C411        C926   1.521       .  S
C411        F931   1.383       .  S
C411        F932   1.383       .  S
C411        F417   1.379       .  S
C414        F418   1.382       .  S
C414        F935   1.382       .  S
C414        F420   1.384       .  S
F415        C927   1.384       .  S
F416        C927   1.383       .  S
F419        C930   1.382       .  S
C421        C422   1.403       .  A
C421        C426   1.407       .  A
C421        H428   1.083       .  S
C422        C423   1.416       .  A
C423        C424   1.407       .  A
C423        C430   1.519       .  S
C424        C425   1.403       .  A
C424        H429   1.084       .  S
C425        C426   1.415       .  A
C426        C943   1.515       .  S
C427        C942   1.515       .  S
C427        F431   1.384       .  S
C427        F432   1.384       .  S
C427        F949   1.382       .  S
C430        F950   1.381       .  S
C430        F435   1.383       .  S
C430        F436   1.385       .  S
F433        C943   1.382       .  S
F434        C946   1.382       .  S
C437        C954   1.403   1_545  A
C437        C442   1.408       .  A
C437        H444   1.083       .  S
C438        C953   1.403       .  A
C438        C439   1.415       .  A
C439        C440   1.407       .  A
C439        C446   1.518       .  S
C440        C441   1.402       .  A
C440        H445   1.083       .  S
C441        C783   1.481       .  S
C441        C958   1.417       .  A
C442        C957   1.416       .  A
C442        C443   1.516       .  S
C443        F447   1.384       .  S
C443        F448   1.382       .  S
C443        F449   1.383       .  S
C446        F450   1.384       .  S
C446        F451   1.383       .  S
C446        F452   1.382       .  S
C453        C454   1.400       .  A
C453        C458   1.405       .  A
C453        H460   1.082       .  S
C454       C1487   1.413       .  A
C455       C1486   1.414       .  A
C455        C456   1.406       .  A
C455        C462   1.516       .  S
C456       C1489   1.403   1_455  A
C456        H461   1.083       .  S
C457       C1488   1.402       .  A
C457        C458   1.416       .  A
C458        C459   1.518       .  S
C459        F463   1.384       .  S
C459        F464   1.383       .  S
C459        F465   1.382       .  S
C462        F466   1.383       .  S
C462        F467   1.380       .  S
C462        F468   1.385       .  S
C469       C1502   1.403   1_455  A
C469        C474   1.406       .  A
C469        H476   1.083       .  S
C470       C1501   1.404       .  A
C470        C471   1.416       .  A
C471        C472   1.406       .  A
C471        C478   1.519       .  S
C472        C473   1.401       .  A
C472        H477   1.081       .  S
C473       C1316   1.474       .  S
C473       C1506   1.413       .  A
C474       C1505   1.413       .  A
C474        C475   1.516       .  S
C475        F479   1.384       .  S
C475        F480   1.379       .  S
C475        F481   1.382       .  S
C478        F482   1.382       .  S
C478        F483   1.383       .  S
C478        F484   1.384       .  S
C485       C1518   1.403   1_455  A
C485        C490   1.405       .  A
C485        H492   1.083       .  S
C486       C1517   1.403       .  A
C486        C487   1.419       .  A
C487        C488   1.403       .  A
C487        C494   1.518       .  S
C488        C489   1.399       .  A
C488        H493   1.085       .  S
C489       C1522   1.412       .  A
C490       C1521   1.417   1_455  A
C490        C491   1.517       .  S
C491        F495   1.385       .  S
C491        F496   1.382       .  S
C491        F497   1.382       .  S
C494        F498   1.384       .  S
C494        F499   1.381       .  S
C494        F500   1.383       .  S
C501       C1534   1.401   1_455  A
C501        C506   1.404       .  A
C501        H508   1.083       .  S
C502       C1533   1.402       .  A
C502        C503   1.417       .  A
C503        C504   1.407       .  A
C503        C510   1.516       .  S
C504        C505   1.400       .  A
C504        H509   1.083       .  S
C505       C1293   1.474       .  S
C505       C1538   1.415       .  A
C506       C1537   1.415   1_455  A
C506        C507   1.516       .  S
C507        F511   1.384       .  S
C507        F512   1.382       .  S
C507        F513   1.382       .  S
C510        F514   1.382       .  S
C510        F515   1.382       .  S
C510        F516   1.385       .  S
O517       Zr529   2.455       .  S
O517        C519   1.290       .  A
O518        C519   1.285       .  A
C519       C1795   1.473       .  S
O520       Zr790   2.455       .  S
C522        C683   1.479       .  S
O523       Zr532   2.450       .  S
O523        C525   1.289       .  A
O524      Zr1587   2.426       .  S
O524        C525   1.286       .  A
O526       Zr787   2.445       .  S
O526       C1560   1.288       .  A
O527      Zr1588   2.425   1_565  S
O527       C1560   1.286       .  A
C528       O1558   1.286       .  A
C528       O1559   1.287       .  A
C528        C747   1.470       .  S
Zr529       O784   2.457       .  S
Zr529      O1567   2.368       .  S
Zr529      O1826   2.366       .  S
Zr529       O817   2.378   1_655  S
Zr529       O561   2.376   1_655  S
Zr529      O1562   2.434       .  S
Zr529       O789   2.435   1_655  S
O530      Zr1561   2.435       .  S
O530        H573   0.990       .  S
O531       Zr787   2.435   1_455  S
O531        H830   0.990       .  S
O531        H576   0.990       .  S
Zr532       O778   2.452       .  S
Zr532       O560   2.374       .  S
Zr532       O820   2.375       .  S
Zr532       O792   2.434       .  S
O533        H832   0.990       .  S
O533        H577   0.990       .  S
O534       Zr790   2.435       .  S
O534        H825   0.990       .  S
O535      Zr1561   2.373       .  S
O535      Zr1071   2.385       .  S
O536      Zr1819   2.372       .  S
O536       Zr556   2.392       .  S
O536        H563   0.964       .  S
O537       Zr549   2.433       .  S
O537        C539   1.284       .  A
O538      Zr1588   2.438   1_465  S
O538        C539   1.290       .  A
C539        C651   1.491       .  S
O540       Zr810   2.434       .  S
O540       C1574   1.286       .  A
O541      Zr1587   2.439       .  S
O541       C1574   1.289       .  A
C542       O1572   1.286       .  A
C542       O1573   1.289       .  A
C542       C1763   1.474       .  S
O543       Zr552   2.435       .  S
O543        C545   1.285       .  A
O544        C545   1.287       .  A
C545        C712   1.469       .  S
O546       Zr807   2.436       .  S
Zr549       O804   2.438   1_554  S
Zr549       O819   2.365   1_554  S
Zr549       O559   2.366       .  S
Zr549       O809   2.434       .  S
O550        H828   0.990       .  S
O550        H833   0.990       .  S
O551       Zr807   2.434       .  S
O551        H829   0.990       .  S
Zr552       O798   2.433   1_554  S
Zr552      O1848   2.375   1_554  S
Zr552      O1589   2.371       .  S
Zr552       O562   2.375       .  S
Zr552       O818   2.375   1_554  S
Zr552      O1585   2.433       .  S
Zr552       O812   2.436       .  S
O553      Zr1584   2.433   1_455  S
O553        H827   0.990       .  S
O554       Zr810   2.434       .  S
O554        H826   0.990       .  S
O554        H836   0.990       .  S
Zr555      O1556   2.433       .  S
Zr555      O1573   2.439       .  S
Zr555      O1051   2.386       .  S
Zr555       O558   2.378   1_655  S
Zr555      O1592   2.382       .  S
Zr556      O1559   2.429       .  S
Zr556      O1570   2.426       .  S
Zr556      O1073   2.384   1_565  S
Zr556      O1591   2.382       .  S
O557      Zr1584   2.372   1_455  S
O557      Zr1072   2.380   1_455  S
O557        H565   0.966       .  S
O558      Zr1842   2.374   1_455  S
O559       Zr787   2.375   1_455  S
O559      Zr1588   2.383   1_465  S
O560       Zr810   2.374       .  S
O560      Zr1587   2.384       .  S
O560        H564   0.966       .  S
O561       Zr807   2.369       .  S
O561        H566   0.966       .  S
O562       Zr790   2.378       .  S
H567        O792   0.990       .  S
H568        O812   0.990       .  S
H569        O811   0.990       .  S
H570        O808   0.990       .  S
H571        O809   0.990   1_556  S
H572        O789   0.990       .  S
H574        O791   0.990       .  S
H575        O808   0.990       .  S
H578        O812   0.990       .  S
N579        C584   1.353       .  A
N579        C583   1.353       .  A
N579        H611   1.035       .  S
N580        C587   1.353       .  A
N580        C588   1.353       .  A
N581        C586   1.354       .  A
N581        C585   1.354       .  A
N581        H612   1.034       .  S
N582        C589   1.352       .  A
N582        C590   1.352       .  A
C583        C591   1.387       .  A
C583        C599   1.415       .  A
C584        C600   1.416       .  A
C584        C592   1.388       .  A
C585        C593   1.387       .  A
C585        C602   1.419       .  A
C586        C601   1.420       .  A
C586        C594   1.388       .  A
C587        C599   1.415       .  A
C587        C595   1.386       .  A
C588        C602   1.417       .  A
C588        C596   1.387       .  A
C589        C597   1.386       .  A
C589        C600   1.416       .  A
C590        C598   1.387       .  A
C590        C601   1.417       .  A
C591        C592   1.372       .  A
C591        H603   1.082       .  S
C592        H604   1.082       .  S
C593        C594   1.374       .  A
C593        H605   1.082       .  S
C594        H606   1.082       .  S
C595        C596   1.372       .  A
C595        H607   1.082       .  S
C596        H608   1.082       .  S
C597        C598   1.372       .  A
C597        H609   1.082       .  S
C598        H610   1.082       .  S
C599        C715   1.488       .  S
C600        C744   1.486       .  S
C601        C760   1.491       .  S
C602        C728   1.491       .  S
N613        C618   1.351   1_565  A
N613        C617   1.354   1_565  A
N613        H645   1.040       .  S
N614        C621   1.347       .  A
N614        C622   1.346       .  A
N615        C620   1.351   1_565  A
N615        C619   1.353   1_565  A
N615        H646   1.041       .  S
N616        C623   1.351   1_545  A
N616        C624   1.351   1_545  A
C617        C625   1.387       .  A
C617        C633   1.416   1_545  A
C618        C634   1.412       .  A
C618        C626   1.386       .  A
C619        C627   1.387       .  A
C619        C636   1.416   1_545  A
C620        C635   1.413       .  A
C620        C628   1.386       .  A
C621        C633   1.408       .  A
C621        C629   1.386       .  A
C622        C636   1.408       .  A
C622        C630   1.387       .  A
C623        C631   1.386       .  A
C623        C634   1.412   1_565  A
C624        C632   1.386       .  A
C624        C635   1.413   1_565  A
C625        C626   1.378       .  A
C625        H637   1.082       .  S
C626        H638   1.082       .  S
C627        C628   1.379       .  A
C627        H639   1.082       .  S
C628        H640   1.082       .  S
C629        C630   1.378       .  A
C629        H641   1.082       .  S
C630        H642   1.082       .  S
C631        C632   1.375       .  A
C631        H643   1.082       .  S
C632        H644   1.082       .  S
C633        C648   1.490       .  S
C634        C680   1.489       .  S
C635        C696   1.489       .  S
C636        C667   1.488       .  S
C647        C648   1.401       .  A
C647        C652   1.406       .  A
C647        H654   1.083       .  S
C648        C649   1.419   1_565  A
C649        C650   1.405       .  A
C649        C656   1.520       .  S
C650        C651   1.405   1_545  A
C650        H655   1.084       .  S
C651        C652   1.426       .  A
C652        C653   1.521       .  S
C653        F657   1.385       .  S
C653        F658   1.382       .  S
C656        F660   1.384       .  S
C663        H670   1.083       .  S
C664        C665   1.422       .  A
C665        C666   1.407       .  A
C665        C672   1.519       .  S
C666        C667   1.402       .  A
C666        H671   1.083       .  S
C667        C668   1.417   1_565  A
C669        F675   1.381       .  S
C672        F676   1.381       .  S
C672        F678   1.385       .  S
C679        C680   1.402       .  A
C679        C684   1.408       .  A
C679        H686   1.083       .  S
C680        C681   1.415   1_545  A
C681        C682   1.409       .  A
C681        C688   1.518       .  S
C682        C683   1.403   1_565  A
C682        H687   1.083       .  S
C683        C684   1.415       .  A
C685        F689   1.384       .  S
C685        F690   1.384       .  S
C688        F693   1.383       .  S
C688        F694   1.384       .  S
C695        C700   1.407       .  A
C695        H702   1.083       .  S
C696        C697   1.416   1_545  A
C697        C698   1.405       .  A
C697        C704   1.518       .  S
C698        C699   1.400   1_565  A
C698        H703   1.084       .  S
C700        C701   1.517       .  S
C701        F705   1.384       .  S
C701        F706   1.382       .  S
C701        F707   1.383       .  S
C704        F708   1.385       .  S
C704        F709   1.383       .  S
C704        F710   1.382       .  S
C711        C712   1.399       .  A
C711        C716   1.404       .  A
C711        H718   1.082       .  S
C712       C1745   1.414       .  A
C713       C1744   1.414   1_455  A
C713        C714   1.407       .  A
C713        C720   1.516       .  S
C714       C1747   1.402   1_455  A
C714        H719   1.083       .  S
C715       C1746   1.404       .  A
C715        C716   1.415       .  A
C716        C717   1.517       .  S
C717        F721   1.384       .  S
C717        F722   1.382       .  S
C717        F723   1.382       .  S
C720        F724   1.382       .  S
C720        F725   1.379       .  S
C720        F726   1.384       .  S
C727       C1760   1.403   1_455  A
C727        C732   1.408       .  A
C727        H734   1.083       .  S
C728       C1759   1.405       .  A
C728        C729   1.415       .  A
C729        C730   1.405       .  A
C729        C736   1.518       .  S
C730        C731   1.400       .  A
C730        H735   1.082       .  S
C731       C1574   1.474       .  S
C731       C1764   1.415       .  A
C732       C1763   1.415   1_455  A
C732        C733   1.516       .  S
C733        F737   1.385       .  S
C733        F738   1.380       .  S
C733        F739   1.382       .  S
C736        F740   1.382       .  S
C736        F741   1.383       .  S
C736        F742   1.384       .  S
C743       C1776   1.405   1_455  A
C743        C748   1.407       .  A
C743        H750   1.083       .  S
C744       C1775   1.401       .  A
C744        C745   1.416       .  A
C745        C746   1.407       .  A
C745        C752   1.518       .  S
C746        C747   1.402       .  A
C746        H751   1.084       .  S
C747       C1780   1.414       .  A
C748       C1779   1.414   1_455  A
C748        C749   1.514       .  S
C749        F753   1.385       .  S
C749        F754   1.382       .  S
C749        F755   1.381       .  S
C752        F756   1.385       .  S
C752        F757   1.382       .  S
C752        F758   1.383       .  S
C759       C1792   1.401   1_455  A
C759        C764   1.404       .  A
C759        H766   1.083       .  S
C760       C1791   1.401       .  A
C760        C761   1.416       .  A
C761        C762   1.409       .  A
C761        C768   1.517       .  S
C762        C763   1.403       .  A
C762        H767   1.083       .  S
C763       C1551   1.475       .  S
C763       C1796   1.415       .  A
C764       C1795   1.415   1_455  A
C764        C765   1.516       .  S
C765        F769   1.385       .  S
C765        F770   1.382       .  S
C765        F771   1.382       .  S
C768        F772   1.383       .  S
C768        F773   1.383       .  S
C768        F774   1.385       .  S
O775       Zr787   2.446   1_556  S
O775        C777   1.289       .  A
O776        C777   1.286       .  A
C777       C2053   1.472       .  S
C780        C941   1.479       .  S
O781       Zr790   2.456   1_556  S
O781        C783   1.290       .  A
O782      Zr1845   2.428       .  S
O782        C783   1.286       .  A
O784       C1818   1.290       .  A
O785      Zr1846   2.421       .  S
O785       C1818   1.285       .  A
C786       O1816   1.291       .  A
C786       O1817   1.285       .  A
C786       C1005   1.482       .  S
Zr787      O1825   2.368   1_554  S
Zr787      O1568   2.364       .  S
Zr787       O819   2.370   1_654  S
Zr787      O1820   2.435       .  S
O788      Zr1819   2.434       .  S
O788        H831   0.990       .  S
O789        H834   0.990       .  S
Zr790       O818   2.373   1_554  S
O791        H835   0.990       .  S
O793      Zr1819   2.366   1_556  S
O793      Zr1329   2.384       .  S
O794      Zr1561   2.368       .  S
O794       Zr814   2.389       .  S
O794        H821   0.965       .  S
O795       Zr807   2.443       .  S
O795        C797   1.286       .  A
O796      Zr1846   2.431   1_455  S
O796        C797   1.288       .  A
C797        C909   1.491       .  S
O798       C1832   1.285       .  A
O799      Zr1845   2.438       .  S
O799       C1832   1.289       .  A
C800       O1830   1.284       .  A
C800       O1831   1.287   1_455  A
C800       C2021   1.464       .  S
O801       Zr810   2.435       .  S
O801        C803   1.285       .  A
O802        C803   1.287       .  A
C803        C970   1.471       .  S
Zr807       O817   2.371       .  S
Zr810      O1590   2.373       .  S
Zr810      O1847   2.368       .  S
Zr810       O820   2.375       .  S
Zr810      O1843   2.433       .  S
O811      Zr1842   2.433   1_455  S
Zr813      O1814   2.430       .  S
Zr813      O1831   2.427       .  S
Zr813      O1309   2.376       .  S
Zr813       O816   2.379   1_655  S
Zr813      O1850   2.385       .  S
Zr814      O1817   2.418       .  S
Zr814      O1828   2.435       .  S
Zr814      O1331   2.381   1_565  S
Zr814      O1849   2.380       .  S
O815      Zr1842   2.373   1_455  S
O815      Zr1330   2.381   1_455  S
O815        H823   0.966       .  S
O816      Zr1584   2.374   1_456  S
O817      Zr1846   2.385   1_455  S
O818      Zr1845   2.385       .  S
O818        H822   0.966       .  S
O819        H824   0.965       .  S
N837        C842   1.354       .  A
N837        C841   1.353       .  A
N837        H869   1.037       .  S
N838        C845   1.351       .  A
N838        C846   1.351       .  A
N839        C844   1.354       .  A
N839        C843   1.353       .  A
N839        H870   1.040       .  S
N840        C847   1.351       .  A
N840        C848   1.351       .  A
C841        C849   1.387       .  A
C841        C857   1.416       .  A
C842        C858   1.417       .  A
C842        C850   1.387       .  A
C843        C851   1.386       .  A
C843        C860   1.414       .  A
C844        C859   1.415       .  A
C844        C852   1.387       .  A
C845        C857   1.413       .  A
C845        C853   1.387       .  A
C846        C860   1.411       .  A
C846        C854   1.386       .  A
C847        C855   1.386       .  A
C847        C858   1.414       .  A
C848        C856   1.386       .  A
C848        C859   1.413       .  A
C849        C850   1.374       .  A
C849        H861   1.082       .  S
C850        H862   1.082       .  S
C851        C852   1.376       .  A
C851        H863   1.082       .  S
C852        H864   1.082       .  S
C853        C854   1.371       .  A
C853        H865   1.082       .  S
C854        H866   1.082       .  S
C855        C856   1.374       .  A
C855        H867   1.082       .  S
C856        H868   1.082       .  S
C857        C973   1.487       .  S
C858       C1002   1.490       .  S
C859       C1018   1.492       .  S
C860        C986   1.487       .  S
N871        C876   1.352   1_565  A
N871        C875   1.353       .  A
N871        H903   1.040       .  S
N872        C879   1.347       .  A
N872        C880   1.347       .  A
N873        C878   1.352   1_565  A
N873        C877   1.355       .  A
N873        H904   1.040       .  S
N874        C881   1.352       .  A
N874        C882   1.352       .  A
C875        C883   1.388   1_565  A
C875        C891   1.417       .  A
C876        C892   1.413   1_545  A
C876        C884   1.385       .  A
C877        C885   1.388   1_565  A
C877        C894   1.420       .  A
C878        C893   1.414   1_545  A
C878        C886   1.386       .  A
C879        C891   1.409       .  A
C879        C887   1.386       .  A
C880        C894   1.410       .  A
C880        C888   1.387       .  A
C881        C889   1.386       .  A
C881        C892   1.414       .  A
C882        C890   1.386       .  A
C882        C893   1.414       .  A
C883        C884   1.378       .  A
C883        H895   1.082       .  S
C884        H896   1.082       .  S
C885        C886   1.379       .  A
C885        H897   1.082       .  S
C886        H898   1.082       .  S
C887        C888   1.376       .  A
C887        H899   1.082       .  S
C888        H900   1.082       .  S
C889        C890   1.375       .  A
C889        H901   1.082       .  S
C890        H902   1.082       .  S
C891        C906   1.488       .  S
C892        C938   1.492   1_565  S
C893        C954   1.490       .  S
C894        C925   1.493       .  S
C905        C906   1.400       .  A
C905        C910   1.406       .  A
C905        H912   1.083       .  S
C906        C907   1.418   1_565  A
C907        C908   1.404       .  A
C907        C914   1.520       .  S
C908        C909   1.407   1_545  A
C908        H913   1.083       .  S
C909        C910   1.424       .  A
C910        C911   1.519       .  S
C911        F915   1.385       .  S
C911        F916   1.382       .  S
C914        F918   1.384       .  S
C921        H928   1.084       .  S
C922        C923   1.424       .  A
C923        C924   1.408       .  A
C923        C930   1.520       .  S
C924        C925   1.404       .  A
C924        H929   1.083       .  S
C925        C926   1.422   1_565  A
C927        F933   1.380       .  S
C930        F934   1.382       .  S
C930        F936   1.385       .  S
C937        C938   1.404       .  A
C937        C942   1.409       .  A
C937        H944   1.083       .  S
C938        C939   1.417   1_545  A
C939        C940   1.408       .  A
C939        C946   1.519       .  S
C940        C941   1.402   1_565  A
C940        H945   1.083       .  S
C941        C942   1.415       .  A
C943        F947   1.385       .  S
C943        F948   1.383       .  S
C946        F951   1.383       .  S
C946        F952   1.384       .  S
C953        C958   1.410       .  A
C953        H960   1.083       .  S
C954        C955   1.417       .  A
C955        C956   1.406       .  A
C955        C962   1.518       .  S
C956        C957   1.401   1_565  A
C956        H961   1.084       .  S
C958        C959   1.515       .  S
C959        F963   1.385       .  S
C959        F964   1.382       .  S
C959        F965   1.383       .  S
C962        F966   1.384       .  S
C962        F967   1.383       .  S
C962        F968   1.382       .  S
C969        C970   1.400       .  A
C969        C974   1.404       .  A
C969        H976   1.082       .  S
C970       C2003   1.415       .  A
C971       C2002   1.414   1_455  A
C971        C972   1.407       .  A
C971        C978   1.516       .  S
C972       C2005   1.403   1_455  A
C972        H977   1.083       .  S
C973       C2004   1.403       .  A
C973        C974   1.416       .  A
C974        C975   1.519       .  S
C975        F979   1.384       .  S
C975        F980   1.383       .  S
C975        F981   1.381       .  S
C978        F982   1.383       .  S
C978        F983   1.379       .  S
C978        F984   1.384       .  S
C985       C2018   1.405   1_455  A
C985        C990   1.407       .  A
C985        H992   1.083       .  S
C986       C2017   1.402       .  A
C986        C987   1.416       .  A
C987        C988   1.406       .  A
C987        C994   1.520       .  S
C988        C989   1.401       .  A
C988        H993   1.082       .  S
C989       C1832   1.473       .  S
C989       C2022   1.414       .  A
C990       C2021   1.412       .  A
C990        C991   1.517       .  S
C991        F995   1.384       .  S
C991        F996   1.381       .  S
C991        F997   1.383       .  S
C994        F998   1.382       .  S
C994        F999   1.383       .  S
C994       F1000   1.384       .  S
C1001      C2034   1.402   1_455  A
C1001      C1006   1.406       .  A
C1001      H1008   1.083       .  S
C1002      C2033   1.403       .  A
C1002      C1003   1.419       .  A
C1003      C1004   1.405       .  A
C1003      C1010   1.519       .  S
C1004      C1005   1.403       .  A
C1004      H1009   1.085       .  S
C1005      C2038   1.420       .  A
C1006      C2037   1.416   1_455  A
C1006      C1007   1.516       .  S
C1007      F1011   1.384       .  S
C1007      F1012   1.381       .  S
C1007      F1013   1.383       .  S
C1010      F1014   1.384       .  S
C1010      F1015   1.381       .  S
C1010      F1016   1.383       .  S
C1017      C2050   1.401   1_455  A
C1017      C1022   1.404       .  A
C1017      H1024   1.083       .  S
C1018      C2049   1.401       .  A
C1018      C1019   1.417       .  A
C1019      C1020   1.410       .  A
C1019      C1026   1.518       .  S
C1020      C1021   1.405       .  A
C1020      H1025   1.083       .  S
C1021      C1809   1.482       .  S
C1021      C2054   1.419       .  A
C1022      C2053   1.415   1_455  A
C1022      C1023   1.517       .  S
C1023      F1027   1.384       .  S
C1023      F1028   1.383       .  S
C1023      F1029   1.381       .  S
C1026      F1030   1.382       .  S
C1026      F1031   1.383       .  S
C1026      F1032   1.385       .  S
O1033     Zr1045   2.444       .  S
O1033      C1035   1.288       .  A
O1034     Zr1587   2.422       .  S
O1034      C1035   1.285       .  A
O1036     Zr1306   2.446       .  S
O1036      C1554   1.288       .  A
O1037     Zr1588   2.427       .  S
O1037      C1554   1.287       .  A
C1038      O1552   1.286       .  A
C1038      O1553   1.288       .  A
C1038      C1199   1.470       .  S
O1039     Zr1048   2.454       .  S
O1039      C1041   1.290       .  A
O1040      C1041   1.286       .  A
C1041      C1731   1.481       .  S
O1042     Zr1303   2.459       .  S
C1044      C1263   1.470       .  S
Zr1045     O1300   2.441       .  S
Zr1045     O1333   2.373       .  S
Zr1045     O1077   2.373       .  S
Zr1045     O1305   2.435       .  S
O1046      H1089   0.990       .  S
O1047     Zr1303   2.435       .  S
O1047      H1346   0.990   1_554  S
O1047      H1092   0.990   1_554  S
Zr1048     O1294   2.456       .  S
Zr1048     O1826   2.373   1_545  S
Zr1048     O1567   2.371   1_545  S
Zr1048     O1076   2.376       .  S
Zr1048     O1336   2.376       .  S
Zr1048     O1565   2.436   1_545  S
Zr1048     O1308   2.434       .  S
O1049     Zr1564   2.436       .  S
O1049      H1348   0.990       .  S
O1049      H1093   0.990       .  S
O1050     Zr1306   2.434       .  S
O1050      H1341   0.990       .  S
O1051     Zr1564   2.369       .  S
O1052     Zr1822   2.373       .  S
O1052     Zr1072   2.389       .  S
O1052      H1079   0.965       .  S
O1053     Zr1065   2.440       .  S
O1053      C1055   1.286       .  A
O1054      C1055   1.288       .  A
C1055      C1167   1.491       .  S
O1056     Zr1326   2.441       .  S
O1059     Zr1068   2.438       .  S
O1059      C1061   1.286       .  A
O1060     Zr1588   2.436       .  S
O1060      C1061   1.288       .  A
C1061      C1228   1.475       .  S
O1062     Zr1323   2.435       .  S
O1062      C1580   1.286       .  A
O1063     Zr1587   2.439       .  S
O1063      C1580   1.290       .  A
C1064      O1578   1.286       .  A
C1064      O1579   1.287       .  A
C1064      C1696   1.486       .  S
Zr1065     O1320   2.442   1_554  S
Zr1065     O1589   2.373       .  S
Zr1065     O1848   2.375   1_554  S
Zr1065     O1335   2.367   1_554  S
Zr1065     O1075   2.372       .  S
Zr1065     O1840   2.435       .  S
Zr1065     O1325   2.433       .  S
O1066     Zr1839   2.435   1_545  S
O1066      H1344   0.990       .  S
O1066      H1349   0.990       .  S
O1067     Zr1323   2.434       .  S
O1067      H1345   0.990       .  S
Zr1068     O1314   2.430   1_654  S
Zr1068     O1078   2.374       .  S
Zr1068     O1334   2.371   1_554  S
Zr1068     O1328   2.437       .  S
O1069      H1343   0.990       .  S
O1070     Zr1326   2.434   1_655  S
O1070      H1342   0.990       .  S
O1070      H1352   0.990       .  S
Zr1071     O1550   2.427       .  S
Zr1071     O1579   2.425       .  S
Zr1071     O1074   2.377   1_565  S
Zr1071     O1593   2.387       .  S
Zr1072     O1553   2.431       .  S
Zr1072     O1576   2.434       .  S
Zr1072     O1594   2.380       .  S
O1073     Zr1581   2.371   1_545  S
O1073      H1081   0.962       .  S
O1074     Zr1839   2.370   1_545  S
O1075     Zr1303   2.373       .  S
O1076     Zr1326   2.369   1_655  S
O1076      H1080   0.966       .  S
O1077     Zr1323   2.366       .  S
O1077     Zr1587   2.386       .  S
O1077      H1082   0.966       .  S
O1078     Zr1306   2.380       .  S
O1078     Zr1588   2.386       .  S
H1083      O1308   0.990       .  S
H1084      O1328   0.990       .  S
H1085      O1327   0.990       .  S
H1086      O1324   0.990       .  S
H1087      O1325   0.990   1_556  S
H1088      O1305   0.990       .  S
H1090      O1307   0.990       .  S
H1091      O1324   0.990       .  S
H1094      O1328   0.990       .  S
N1095      C1100   1.353       .  A
N1095      C1099   1.352   1_655  A
N1095      H1127   1.031       .  S
N1096      C1103   1.353       .  A
N1096      C1104   1.353       .  A
N1097      C1102   1.352   1_655  A
N1097      C1101   1.353   1_655  A
N1097      H1128   1.034       .  S
N1098      C1105   1.351       .  A
N1098      C1106   1.350       .  A
C1099      C1107   1.387       .  A
C1099      C1115   1.418       .  A
C1100      C1116   1.419       .  A
C1100      C1108   1.388   1_655  A
C1101      C1109   1.388       .  A
C1101      C1118   1.418       .  A
C1102      C1117   1.416   1_455  A
C1102      C1110   1.387       .  A
C1103      C1115   1.419       .  A
C1103      C1111   1.387       .  A
C1104      C1118   1.418       .  A
C1104      C1112   1.386       .  A
C1105      C1113   1.387       .  A
C1105      C1116   1.415       .  A
C1106      C1114   1.388       .  A
C1106      C1117   1.415       .  A
C1107      C1108   1.373       .  A
C1107      H1119   1.082       .  S
C1108      H1120   1.082       .  S
C1109      C1110   1.373       .  A
C1109      H1121   1.082       .  S
C1110      H1122   1.082       .  S
C1111      C1112   1.373       .  A
C1111      H1123   1.082       .  S
C1112      H1124   1.082       .  S
C1113      C1114   1.372       .  A
C1113      H1125   1.082       .  S
C1114      H1126   1.082       .  S
C1115      C1231   1.490       .  S
C1116      C1260   1.486       .  S
C1117      C1276   1.482       .  S
C1118      C1244   1.493       .  S
N1129      C1134   1.351       .  A
N1129      C1133   1.353       .  A
N1129      H1161   1.041       .  S
N1130      C1137   1.347       .  A
N1130      C1138   1.346       .  A
N1131      C1136   1.351       .  A
N1131      C1135   1.354       .  A
N1131      H1162   1.041       .  S
N1132      C1139   1.352       .  A
N1132      C1140   1.353       .  A
C1133      C1141   1.388       .  A
C1133      C1149   1.417       .  A
C1134      C1150   1.413       .  A
C1134      C1142   1.387       .  A
C1135      C1143   1.387       .  A
C1135      C1152   1.415       .  A
C1136      C1151   1.412       .  A
C1136      C1144   1.386       .  A
C1137      C1149   1.409       .  A
C1137      C1145   1.387       .  A
C1138      C1152   1.408       .  A
C1138      C1146   1.386       .  A
C1139      C1147   1.386       .  A
C1139      C1150   1.415       .  A
C1140      C1148   1.386       .  A
C1140      C1151   1.416       .  A
C1141      C1142   1.379       .  A
C1141      H1153   1.082       .  S
C1142      H1154   1.082       .  S
C1143      C1144   1.378       .  A
C1143      H1155   1.082       .  S
C1144      H1156   1.082       .  S
C1145      C1146   1.379       .  A
C1145      H1157   1.082       .  S
C1146      H1158   1.082       .  S
C1147      C1148   1.378       .  A
C1147      H1159   1.082       .  S
C1148      H1160   1.082       .  S
C1149      C1164   1.490       .  S
C1150      C1196   1.491       .  S
C1151      C1212   1.495       .  S
C1152      C1183   1.490       .  S
C1163      C1164   1.401       .  A
C1163      C1168   1.406       .  A
C1163      H1170   1.083       .  S
C1164      C1165   1.420       .  A
C1165      C1166   1.404       .  A
C1165      C1172   1.520       .  S
C1166      C1167   1.406       .  A
C1166      H1171   1.083       .  S
C1167      C1168   1.424       .  A
C1168      C1169   1.520       .  S
C1169      F1173   1.385       .  S
C1169      F1174   1.382       .  S
C1169      F1691   1.383       .  S
C1172      F1176   1.384       .  S
C1172      F1693   1.381       .  S
C1172      F1694   1.383       .  S
F1175      C1685   1.382       .  S
F1177      C1688   1.380       .  S
F1178      C1688   1.383       .  S
C1179      C1696   1.405   1_545  A
C1179      C1700   1.403       .  A
C1179      H1186   1.083       .  S
C1180      C1580   1.488       .  S
C1180      C1695   1.404       .  A
C1180      C1181   1.424       .  A
C1181      C1182   1.408       .  A
C1181      C1188   1.520       .  S
C1182      C1183   1.400       .  A
C1182      H1187   1.083       .  S
C1183      C1184   1.416       .  A
C1184      C1695   1.406       .  A
C1184      C1701   1.518       .  S
C1185      C1700   1.521       .  S
C1185      F1705   1.384       .  S
C1185      F1706   1.382       .  S
C1185      F1191   1.382       .  S
C1188      F1192   1.381       .  S
C1188      F1709   1.383       .  S
C1188      F1194   1.385       .  S
F1189      C1701   1.385       .  S
F1190      C1701   1.377       .  S
F1193      C1704   1.383       .  S
C1195      C1196   1.405       .  A
C1195      C1200   1.408       .  A
C1195      H1202   1.083       .  S
C1196      C1197   1.418       .  A
C1197      C1198   1.405       .  A
C1197      C1204   1.518       .  S
C1198      C1199   1.400       .  A
C1198      H1203   1.084       .  S
C1199      C1200   1.412       .  A
C1200      C1717   1.515       .  S
C1201      C1716   1.515       .  S
C1201      F1205   1.384       .  S
C1201      F1206   1.384       .  S
C1201      F1723   1.382       .  S
C1204      F1724   1.382       .  S
C1204      F1209   1.382       .  S
C1204      F1210   1.385       .  S
F1207      C1717   1.382       .  S
F1208      C1720   1.382       .  S
C1211      C1728   1.402   1_545  A
C1211      C1216   1.409       .  A
C1211      H1218   1.083       .  S
C1212      C1727   1.401       .  A
C1212      C1213   1.419       .  A
C1213      C1214   1.412       .  A
C1213      C1220   1.519       .  S
C1214      C1215   1.404       .  A
C1214      H1219   1.083       .  S
C1215      C1557   1.485       .  S
C1215      C1732   1.416       .  A
C1216      C1731   1.416       .  A
C1216      C1217   1.515       .  S
C1217      F1221   1.383       .  S
C1217      F1222   1.382       .  S
C1217      F1223   1.384       .  S
C1220      F1224   1.384       .  S
C1220      F1225   1.383       .  S
C1220      F1226   1.382       .  S
C1227      C1228   1.401       .  A
C1227      C1232   1.408       .  A
C1227      H1234   1.082       .  S
C1229      C1230   1.409       .  A
C1229      C1236   1.517       .  S
C1230      H1235   1.083       .  S
C1231      C1232   1.416   1_455  A
C1232      C1233   1.519       .  S
C1233      F1237   1.384       .  S
C1233      F1238   1.383       .  S
C1233      F1239   1.382       .  S
C1236      F1240   1.383       .  S
C1236      F1241   1.379       .  S
C1236      F1242   1.384       .  S
C1243      C1248   1.407       .  A
C1243      H1250   1.083       .  S
C1244      C1245   1.416   1_455  A
C1245      C1246   1.409       .  A
C1245      C1252   1.520       .  S
C1246      C1247   1.403   1_655  A
C1246      H1251   1.081       .  S
C1248      C1249   1.516       .  S
C1249      F1253   1.384       .  S
C1249      F1254   1.379       .  S
C1249      F1255   1.383       .  S
C1252      F1256   1.382       .  S
C1252      F1257   1.383       .  S
C1252      F1258   1.382       .  S
C1259      C1264   1.407       .  A
C1259      H1266   1.083       .  S
C1260      C1261   1.416       .  A
C1261      C1262   1.408       .  A
C1261      C1268   1.518       .  S
C1262      C1263   1.402       .  A
C1262      H1267   1.083       .  S
C1264      C1265   1.519       .  S
C1265      F1269   1.385       .  S
C1265      F1270   1.382       .  S
C1265      F1271   1.382       .  S
C1268      F1272   1.384       .  S
C1268      F1273   1.382       .  S
C1268      F1274   1.383       .  S
C1275      C1280   1.404       .  A
C1275      H1282   1.083       .  S
C1276      C1277   1.415       .  A
C1277      C1278   1.404       .  A
C1277      C1284   1.517       .  S
C1278      C1279   1.401       .  A
C1278      H1283   1.084       .  S
C1280      C1281   1.517       .  S
C1281      F1285   1.384       .  S
C1281      F1286   1.381       .  S
C1281      F1287   1.382       .  S
C1284      F1288   1.382       .  S
C1284      F1289   1.383       .  S
C1284      F1290   1.385       .  S
O1291     Zr1303   2.449   1_556  S
O1291      C1293   1.289       .  A
O1292     Zr1845   2.423       .  S
O1292      C1293   1.286       .  A
O1294      C1812   1.290       .  A
O1295     Zr1846   2.431   1_545  S
O1295      C1812   1.287       .  A
C1296      O1810   1.289       .  A
C1296      O1811   1.285       .  A
C1296      C1457   1.472       .  S
O1297     Zr1306   2.450   1_556  S
O1297      C1299   1.289       .  A
O1298      C1299   1.286       .  A
C1299      C1989   1.476       .  S
C1302      C1521   1.477       .  S
Zr1303     O1335   2.374   1_554  S
O1304      H1347   0.991   1_554  S
O1305      H1350   0.990       .  S
Zr1306     O1568   2.373   1_545  S
Zr1306     O1825   2.368   1_544  S
Zr1306     O1334   2.372   1_554  S
Zr1306     O1823   2.437   1_545  S
O1307     Zr1822   2.436       .  S
O1307      H1351   0.990       .  S
O1309     Zr1822   2.366   1_556  S
O1310     Zr1564   2.373       .  S
O1310     Zr1330   2.393       .  S
O1310      H1337   0.965       .  S
O1311     Zr1323   2.432       .  S
O1311      C1313   1.285       .  A
O1312      C1313   1.287       .  A
C1313      C1425   1.480       .  S
O1317     Zr1326   2.427       .  S
O1317      C1319   1.284       .  A
O1318     Zr1846   2.435   1_545  S
O1318      C1319   1.288   1_655  A
C1319      C1486   1.468       .  S
O1320      C1838   1.286       .  A
O1321     Zr1845   2.429       .  S
O1321      C1838   1.289       .  A
C1322      O1836   1.285       .  A
C1322      O1837   1.287       .  A
C1322      C1954   1.486       .  S
Zr1323     O1847   2.371       .  S
Zr1323     O1590   2.371       .  S
Zr1323     O1333   2.369       .  S
Zr1323     O1582   2.435       .  S
O1324     Zr1581   2.435   1_545  S
Zr1326     O1336   2.376   1_455  S
Zr1329     O1808   2.424       .  S
Zr1329     O1837   2.423       .  S
Zr1329     O1332   2.379   1_565  S
Zr1329     O1851   2.384       .  S
Zr1330     O1811   2.421       .  S
Zr1330     O1834   2.439       .  S
Zr1330     O1852   2.381       .  S
O1331     Zr1839   2.373   1_545  S
O1331      H1339   0.966       .  S
O1332     Zr1581   2.376   1_546  S
O1334      H1338   0.966       .  S
O1335     Zr1845   2.386       .  S
O1335      H1340   0.965       .  S
O1336     Zr1846   2.382   1_545  S
N1353      C1358   1.353       .  A
N1353      C1357   1.352       .  A
N1353      H1385   1.036       .  S
N1354      C1361   1.352       .  A
N1354      C1362   1.352       .  A
N1355      C1360   1.353       .  A
N1355      C1359   1.352   1_655  A
N1355      H1386   1.037       .  S
N1356      C1363   1.351       .  A
N1356      C1364   1.351       .  A
C1357      C1365   1.387   1_655  A
C1357      C1373   1.414       .  A
C1358      C1374   1.417       .  A
C1358      C1366   1.388   1_655  A
C1359      C1367   1.388       .  A
C1359      C1376   1.415   1_455  A
C1360      C1375   1.415       .  A
C1360      C1368   1.387   1_655  A
C1361      C1373   1.414       .  A
C1361      C1369   1.387       .  A
C1362      C1376   1.414       .  A
C1362      C1370   1.387       .  A
C1363      C1371   1.386       .  A
C1363      C1374   1.414       .  A
C1364      C1372   1.386       .  A
C1364      C1375   1.413       .  A
C1365      C1366   1.374       .  A
C1365      H1377   1.082       .  S
C1366      H1378   1.082       .  S
C1367      C1368   1.374       .  A
C1367      H1379   1.082       .  S
C1368      H1380   1.082       .  S
C1369      C1370   1.372       .  A
C1369      H1381   1.082       .  S
C1370      H1382   1.082       .  S
C1371      C1372   1.372       .  A
C1371      H1383   1.082       .  S
C1372      H1384   1.082       .  S
C1373      C1489   1.486       .  S
C1374      C1518   1.487       .  S
C1375      C1534   1.488       .  S
C1376      C1502   1.486       .  S
N1387      C1392   1.350       .  A
N1387      C1391   1.351       .  A
N1387      H1419   1.039       .  S
N1388      C1395   1.347       .  A
N1388      C1396   1.347       .  A
N1389      C1394   1.352       .  A
N1389      C1393   1.354       .  A
N1389      H1420   1.041       .  S
N1390      C1397   1.351       .  A
N1390      C1398   1.350       .  A
C1391      C1399   1.387       .  A
C1391      C1407   1.413       .  A
C1392      C1408   1.411       .  A
C1392      C1400   1.387       .  A
C1393      C1401   1.387       .  A
C1393      C1410   1.416       .  A
C1394      C1409   1.413       .  A
C1394      C1402   1.386       .  A
C1395      C1407   1.408       .  A
C1395      C1403   1.387       .  A
C1396      C1410   1.409       .  A
C1396      C1404   1.386       .  A
C1397      C1405   1.386       .  A
C1397      C1408   1.412       .  A
C1398      C1406   1.387       .  A
C1398      C1409   1.412       .  A
C1399      C1400   1.376       .  A
C1399      H1411   1.082       .  S
C1400      H1412   1.082       .  S
C1401      C1402   1.377       .  A
C1401      H1413   1.082       .  S
C1402      H1414   1.082       .  S
C1403      C1404   1.376       .  A
C1403      H1415   1.082       .  S
C1404      H1416   1.082       .  S
C1405      C1406   1.376       .  A
C1405      H1417   1.082       .  S
C1406      H1418   1.082       .  S
C1407      C1422   1.482       .  S
C1408      C1454   1.485       .  S
C1409      C1470   1.489       .  S
C1410      C1441   1.490       .  S
C1421      C1422   1.399       .  A
C1421      C1426   1.404       .  A
C1421      H1428   1.083       .  S
C1422      C1423   1.414       .  A
C1423      C1424   1.403       .  A
C1423      C1430   1.520       .  S
C1424      C1425   1.404       .  A
C1424      H1429   1.081       .  S
C1425      C1426   1.421       .  A
C1426      C1427   1.519       .  S
C1427      F1431   1.384       .  S
C1427      F1432   1.383       .  S
C1427      F1949   1.380       .  S
C1430      F1434   1.385       .  S
C1430      F1951   1.384       .  S
C1430      F1952   1.380       .  S
F1433      C1943   1.383       .  S
F1435      C1946   1.379       .  S
F1436      C1946   1.383       .  S
C1437      C1954   1.405   1_545  A
C1437      C1958   1.402       .  A
C1437      H1444   1.083       .  S
C1438      C1838   1.490       .  S
C1438      C1953   1.404       .  A
C1438      C1439   1.424       .  A
C1439      C1440   1.408       .  A
C1439      C1446   1.519       .  S
C1440      C1441   1.403       .  A
C1440      H1445   1.083       .  S
C1441      C1442   1.419       .  A
C1442      C1953   1.402       .  A
C1442      C1959   1.520       .  S
C1443      C1958   1.520       .  S
C1443      F1963   1.384       .  S
C1443      F1964   1.382       .  S
C1443      F1449   1.381       .  S
C1446      F1450   1.380       .  S
C1446      F1967   1.382       .  S
C1446      F1452   1.385       .  S
F1447      C1959   1.384       .  S
F1448      C1959   1.383       .  S
F1451      C1962   1.383       .  S
C1453      C1454   1.402       .  A
C1453      C1458   1.407       .  A
C1453      H1460   1.083       .  S
C1454      C1455   1.415       .  A
C1455      C1456   1.405       .  A
C1455      C1462   1.519       .  S
C1456      C1457   1.401       .  A
C1456      H1461   1.084       .  S
C1457      C1458   1.415       .  A
C1458      C1975   1.515       .  S
C1459      C1974   1.514       .  S
C1459      F1463   1.384       .  S
C1459      F1464   1.384       .  S
C1459      F1981   1.382       .  S
C1462      F1982   1.382       .  S
C1462      F1467   1.383       .  S
C1462      F1468   1.384       .  S
F1465      C1975   1.382       .  S
F1466      C1978   1.382       .  S
C1469      C1986   1.402   1_545  A
C1469      C1474   1.408       .  A
C1469      H1476   1.083       .  S
C1470      C1985   1.403       .  A
C1470      C1471   1.416       .  A
C1471      C1472   1.406       .  A
C1471      C1478   1.519       .  S
C1472      C1473   1.402       .  A
C1472      H1477   1.083       .  S
C1473      C1815   1.477       .  S
C1473      C1990   1.415       .  A
C1474      C1989   1.415       .  A
C1474      C1475   1.514       .  S
C1475      F1479   1.384       .  S
C1475      F1480   1.382       .  S
C1475      F1481   1.384       .  S
C1478      F1482   1.385       .  S
C1478      F1483   1.383       .  S
C1478      F1484   1.381       .  S
C1485      C1486   1.399   1_655  A
C1485      C1490   1.404       .  A
C1485      H1492   1.083       .  S
C1487      C1488   1.405       .  A
C1487      C1494   1.515       .  S
C1488      H1493   1.083       .  S
C1489      C1490   1.415       .  A
C1490      C1491   1.518       .  S
C1491      F1495   1.384       .  S
C1491      F1496   1.383       .  S
C1491      F1497   1.382       .  S
C1494      F1498   1.383       .  S
C1494      F1499   1.379       .  S
C1494      F1500   1.384       .  S
C1501      C1506   1.408       .  A
C1501      H1508   1.083       .  S
C1502      C1503   1.415       .  A
C1503      C1504   1.405       .  A
C1503      C1510   1.519       .  S
C1504      C1505   1.400   1_655  A
C1504      H1509   1.081       .  S
C1506      C1507   1.515       .  S
C1507      F1511   1.384       .  S
C1507      F1512   1.380       .  S
C1507      F1513   1.383       .  S
C1510      F1514   1.382       .  S
C1510      F1515   1.383       .  S
C1510      F1516   1.383       .  S
C1517      C1522   1.404       .  A
C1517      H1524   1.083       .  S
C1518      C1519   1.419       .  A
C1519      C1520   1.405       .  A
C1519      C1526   1.520       .  S
C1520      C1521   1.403       .  A
C1520      H1525   1.085       .  S
C1522      C1523   1.515       .  S
C1523      F1527   1.385       .  S
C1523      F1528   1.383       .  S
C1523      F1529   1.382       .  S
C1526      F1530   1.384       .  S
C1526      F1531   1.382       .  S
C1526      F1532   1.383       .  S
C1533      C1538   1.406       .  A
C1533      H1540   1.083       .  S
C1534      C1535   1.416       .  A
C1535      C1536   1.408       .  A
C1535      C1542   1.518       .  S
C1536      C1537   1.403       .  A
C1536      H1541   1.083       .  S
C1538      C1539   1.515       .  S
C1539      F1543   1.385       .  S
C1539      F1544   1.383       .  S
C1539      F1545   1.381       .  S
C1542      F1546   1.382       .  S
C1542      F1547   1.383       .  S
C1542      F1548   1.385       .  S
O1549     Zr1561   2.452       .  S
O1549      C1551   1.289       .  A
O1550      C1551   1.286       .  A
O1552     Zr1822   2.435       .  S
C1554      C1715   1.472       .  S
O1555     Zr1564   2.457       .  S
O1555      C1557   1.290       .  A
O1556      C1557   1.288       .  A
O1558     Zr1819   2.437       .  S
C1560      C1779   1.473       .  S
Zr1561     O1816   2.458       .  S
Zr1561     O1849   2.370       .  S
Zr1561     O1593   2.377       .  S
Zr1561     O1821   2.435       .  S
O1562      H1605   0.990       .  S
O1563     Zr1819   2.435       .  S
O1563      H1862   0.990   1_554  S
O1563      H1608   0.990       .  S
Zr1564     O1810   2.452       .  S
Zr1564     O1592   2.373       .  S
Zr1564     O1852   2.378       .  S
Zr1564     O1824   2.435       .  S
O1565      H1864   0.990       .  S
O1565      H1609   0.990       .  S
O1566     Zr1822   2.434       .  S
O1566      H1857   0.990       .  S
O1568     Zr1588   2.391   1_565  S
O1568      H1595   0.965       .  S
O1569     Zr1581   2.441       .  S
O1569      C1571   1.287       .  A
O1570      C1571   1.288       .  A
C1571      C1683   1.488       .  S
O1572     Zr1842   2.435       .  S
O1575     Zr1584   2.438       .  S
O1575      C1577   1.286       .  A
O1576      C1577   1.288       .  A
C1577      C1744   1.474       .  S
O1578     Zr1839   2.436       .  S
Zr1581     O1836   2.435   1_554  S
Zr1581     O1851   2.369   1_554  S
Zr1581     O1591   2.367       .  S
Zr1581     O1841   2.434       .  S
O1582      H1860   0.990       .  S
O1582      H1865   0.990       .  S
O1583     Zr1839   2.433       .  S
O1583      H1861   0.990       .  S
Zr1584     O1830   2.427   1_654  S
Zr1584     O1594   2.367       .  S
Zr1584     O1850   2.375   1_554  S
Zr1584     O1844   2.437       .  S
O1585      H1859   0.990       .  S
O1586     Zr1842   2.435       .  S
O1586      H1858   0.991       .  S
O1586      H1868   0.990       .  S
Zr1587     O1590   2.375       .  S
O1589      H1597   0.966       .  S
O1591     Zr1819   2.375       .  S
O1592     Zr1842   2.376       .  S
O1592      H1596   0.966       .  S
O1593     Zr1839   2.368       .  S
O1593      H1598   0.966       .  S
O1594     Zr1822   2.375       .  S
H1599      O1824   0.990       .  S
H1600      O1844   0.990       .  S
H1601      O1843   0.990       .  S
H1602      O1840   0.990   1_556  S
H1603      O1841   0.990       .  S
H1604      O1821   0.990       .  S
H1606      O1823   0.990       .  S
H1607      O1840   0.990   1_556  S
H1610      O1844   0.990   1_556  S
N1611      C1616   1.353   1_655  A
N1611      C1615   1.353   1_655  A
N1611      H1643   1.033       .  S
N1612      C1619   1.352       .  A
N1612      C1620   1.351       .  A
N1613      C1618   1.355       .  A
N1613      C1617   1.354       .  A
N1613      H1644   1.035       .  S
N1614      C1621   1.351       .  A
N1614      C1622   1.351       .  A
C1615      C1623   1.387       .  A
C1615      C1631   1.418   1_455  A
C1616      C1632   1.419   1_455  A
C1616      C1624   1.387       .  A
C1617      C1625   1.388   1_655  A
C1617      C1634   1.420       .  A
C1618      C1633   1.419       .  A
C1618      C1626   1.387       .  A
C1619      C1631   1.416       .  A
C1619      C1627   1.387       .  A
C1620      C1634   1.415       .  A
C1620      C1628   1.387       .  A
C1621      C1629   1.387       .  A
C1621      C1632   1.415       .  A
C1622      C1630   1.387       .  A
C1622      C1633   1.414       .  A
C1623      C1624   1.376       .  A
C1623      H1635   1.082       .  S
C1624      H1636   1.082       .  S
C1625      C1626   1.375   1_455  A
C1625      H1637   1.082       .  S
C1626      H1638   1.082   1_655  S
C1627      C1628   1.371       .  A
C1627      H1639   1.082       .  S
C1628      H1640   1.082       .  S
C1629      C1630   1.370       .  A
C1629      H1641   1.082       .  S
C1630      H1642   1.082       .  S
C1631      C1747   1.489       .  S
C1632      C1776   1.486       .  S
C1633      C1792   1.489       .  S
C1634      C1760   1.489       .  S
N1645      C1650   1.351   1_565  A
N1645      C1649   1.355       .  A
N1645      H1677   1.040       .  S
N1646      C1653   1.347       .  A
N1646      C1654   1.346       .  A
N1647      C1652   1.352   1_565  A
N1647      C1651   1.352   1_565  A
N1647      H1678   1.041       .  S
N1648      C1655   1.351       .  A
N1648      C1656   1.353       .  A
C1649      C1657   1.387   1_565  A
C1649      C1665   1.418       .  A
C1650      C1666   1.414   1_545  A
C1650      C1658   1.387       .  A
C1651      C1659   1.388       .  A
C1651      C1668   1.416   1_545  A
C1652      C1667   1.413   1_545  A
C1652      C1660   1.387       .  A
C1653      C1665   1.408       .  A
C1653      C1661   1.386       .  A
C1654      C1668   1.408       .  A
C1654      C1662   1.386       .  A
C1655      C1663   1.387       .  A
C1655      C1666   1.415       .  A
C1656      C1664   1.385       .  A
C1656      C1667   1.414       .  A
C1657      C1658   1.379       .  A
C1657      H1669   1.082       .  S
C1658      H1670   1.082       .  S
C1659      C1660   1.379       .  A
C1659      H1671   1.082       .  S
C1660      H1672   1.082       .  S
C1661      C1662   1.375       .  A
C1661      H1673   1.082       .  S
C1662      H1674   1.082       .  S
C1663      C1664   1.377       .  A
C1663      H1675   1.082       .  S
C1664      H1676   1.082       .  S
C1665      C1680   1.493       .  S
C1666      C1712   1.488       .  S
C1667      C1728   1.494       .  S
C1668      C1699   1.487       .  S
C1679      C1680   1.403       .  A
C1679      C1684   1.406       .  A
C1679      H1686   1.083       .  S
C1680      C1681   1.422   1_565  A
C1681      C1682   1.403       .  A
C1681      C1688   1.521       .  S
C1682      C1683   1.403   1_545  A
C1682      H1687   1.084       .  S
C1683      C1684   1.421       .  A
C1684      C1685   1.518       .  S
C1685      F1689   1.385       .  S
C1685      F1690   1.382       .  S
C1688      F1692   1.384       .  S
C1695      H1702   1.081       .  S
C1696      C1697   1.422       .  A
C1697      C1698   1.404       .  A
C1697      C1704   1.519       .  S
C1698      C1699   1.400       .  A
C1698      H1703   1.083       .  S
C1699      C1700   1.420   1_565  A
C1701      F1707   1.383       .  S
C1704      F1708   1.383       .  S
C1704      F1710   1.385       .  S
C1711      C1712   1.404   1_545  A
C1711      C1716   1.408       .  A
C1711      H1718   1.083       .  S
C1712      C1713   1.416       .  A
C1713      C1714   1.405       .  A
C1713      C1720   1.518       .  S
C1714      C1715   1.401   1_565  A
C1714      H1719   1.084       .  S
C1715      C1716   1.413       .  A
C1717      F1721   1.384       .  S
C1717      F1722   1.384       .  S
C1720      F1725   1.383       .  S
C1720      F1726   1.385       .  S
C1727      C1732   1.409       .  A
C1727      H1734   1.083       .  S
C1728      C1729   1.418       .  A
C1729      C1730   1.410       .  A
C1729      C1736   1.518       .  S
C1730      C1731   1.403   1_565  A
C1730      H1735   1.083       .  S
C1732      C1733   1.513       .  S
C1733      F1737   1.383       .  S
C1733      F1738   1.382       .  S
C1733      F1739   1.384       .  S
C1736      F1740   1.384       .  S
C1736      F1741   1.383       .  S
C1736      F1742   1.381       .  S
C1743      C1744   1.402       .  A
C1743      C1748   1.407       .  A
C1743      H1750   1.082       .  S
C1745      C1746   1.407       .  A
C1745      C1752   1.516       .  S
C1746      H1751   1.083       .  S
C1747      C1748   1.416       .  A
C1748      C1749   1.518       .  S
C1749      F1753   1.384       .  S
C1749      F1754   1.383       .  S
C1749      F1755   1.383       .  S
C1752      F1756   1.383       .  S
C1752      F1757   1.380       .  S
C1752      F1758   1.385       .  S
C1759      C1764   1.409       .  A
C1759      H1766   1.083       .  S
C1760      C1761   1.415       .  A
C1761      C1762   1.406       .  A
C1761      C1768   1.519       .  S
C1762      C1763   1.401       .  A
C1762      H1767   1.082       .  S
C1764      C1765   1.517       .  S
C1765      F1769   1.385       .  S
C1765      F1770   1.380       .  S
C1765      F1771   1.382       .  S
C1768      F1772   1.382       .  S
C1768      F1773   1.382       .  S
C1768      F1774   1.383       .  S
C1775      C1780   1.404       .  A
C1775      H1782   1.083       .  S
C1776      C1777   1.419       .  A
C1777      C1778   1.402       .  A
C1777      C1784   1.518       .  S
C1778      C1779   1.398       .  A
C1778      H1783   1.085       .  S
C1780      C1781   1.516       .  S
C1781      F1785   1.385       .  S
C1781      F1786   1.381       .  S
C1781      F1787   1.384       .  S
C1784      F1788   1.384       .  S
C1784      F1789   1.381       .  S
C1784      F1790   1.383       .  S
C1791      C1796   1.406       .  A
C1791      H1798   1.083       .  S
C1792      C1793   1.416       .  A
C1793      C1794   1.409       .  A
C1793      C1800   1.517       .  S
C1794      C1795   1.402       .  A
C1794      H1799   1.083       .  S
C1796      C1797   1.517       .  S
C1797      F1801   1.385       .  S
C1797      F1802   1.383       .  S
C1797      F1803   1.382       .  S
C1800      F1804   1.382       .  S
C1800      F1805   1.383       .  S
C1800      F1806   1.385       .  S
O1807     Zr1819   2.451   1_556  S
O1807      C1809   1.290       .  A
O1808      C1809   1.286       .  A
C1812      C1973   1.479       .  S
O1813     Zr1822   2.444   1_556  S
O1813      C1815   1.288       .  A
O1814      C1815   1.287       .  A
C1818      C2037   1.477       .  S
Zr1819     O1851   2.370   1_554  S
O1820      H1863   0.990   1_554  S
O1821      H1866   0.990       .  S
Zr1822     O1850   2.370   1_554  S
O1823      H1867   0.990       .  S
O1826     Zr1846   2.389       .  S
O1826      H1853   0.965       .  S
O1827     Zr1839   2.436       .  S
O1827      C1829   1.285       .  A
O1828      C1829   1.290       .  A
C1829      C1941   1.495       .  S
O1833     Zr1842   2.437       .  S
O1833      C1835   1.286       .  A
O1834      C1835   1.289       .  A
C1835      C2002   1.475       .  S
Zr1839     O1849   2.369       .  S
Zr1842     O1852   2.372       .  S
Zr1845     O1848   2.379       .  S
O1847      H1855   0.965       .  S
O1850      H1854   0.967       .  S
O1851      H1856   0.966       .  S
N1869      C1874   1.354       .  A
N1869      C1873   1.354       .  A
N1869      H1901   1.037       .  S
N1870      C1877   1.352       .  A
N1870      C1878   1.351       .  A
N1871      C1876   1.353       .  A
N1871      C1875   1.352       .  A
N1871      H1902   1.037       .  S
N1872      C1879   1.351       .  A
N1872      C1880   1.351       .  A
C1873      C1881   1.387   1_655  A
C1873      C1889   1.416       .  A
C1874      C1890   1.417       .  A
C1874      C1882   1.388   1_655  A
C1875      C1883   1.388   1_655  A
C1875      C1892   1.415       .  A
C1876      C1891   1.414       .  A
C1876      C1884   1.387   1_655  A
C1877      C1889   1.414       .  A
C1877      C1885   1.386       .  A
C1878      C1892   1.414       .  A
C1878      C1886   1.387       .  A
C1879      C1887   1.386       .  A
C1879      C1890   1.414       .  A
C1880      C1888   1.386       .  A
C1880      C1891   1.413       .  A
C1881      C1882   1.375       .  A
C1881      H1893   1.082       .  S
C1882      H1894   1.082       .  S
C1883      C1884   1.372       .  A
C1883      H1895   1.082       .  S
C1884      H1896   1.082       .  S
C1885      C1886   1.372       .  A
C1885      H1897   1.082       .  S
C1886      H1898   1.082       .  S
C1887      C1888   1.374       .  A
C1887      H1899   1.082       .  S
C1888      H1900   1.082       .  S
C1889      C2005   1.489       .  S
C1890      C2034   1.489       .  S
C1891      C2050   1.487       .  S
C1892      C2018   1.485       .  S
N1903      C1908   1.353       .  A
N1903      C1907   1.354       .  A
N1903      H1935   1.041       .  S
N1904      C1911   1.349       .  A
N1904      C1912   1.348       .  A
N1905      C1910   1.351   1_565  A
N1905      C1909   1.352       .  A
N1905      H1936   1.041       .  S
N1906      C1913   1.350       .  A
N1906      C1914   1.351       .  A
C1907      C1915   1.388   1_565  A
C1907      C1923   1.419       .  A
C1908      C1924   1.413       .  A
C1908      C1916   1.386   1_565  A
C1909      C1917   1.388   1_565  A
C1909      C1926   1.415       .  A
C1910      C1925   1.411   1_545  A
C1910      C1918   1.386       .  A
C1911      C1923   1.413       .  A
C1911      C1919   1.387       .  A
C1912      C1926   1.412       .  A
C1912      C1920   1.386       .  A
C1913      C1921   1.386       .  A
C1913      C1924   1.412       .  A
C1914      C1922   1.386       .  A
C1914      C1925   1.412       .  A
C1915      C1916   1.378       .  A
C1915      H1927   1.082       .  S
C1916      H1928   1.082       .  S
C1917      C1918   1.377       .  A
C1917      H1929   1.082       .  S
C1918      H1930   1.082       .  S
C1919      C1920   1.378       .  A
C1919      H1931   1.082       .  S
C1920      H1932   1.082       .  S
C1921      C1922   1.376       .  A
C1921      H1933   1.082       .  S
C1922      H1934   1.082       .  S
C1923      C1938   1.497       .  S
C1924      C1970   1.490       .  S
C1925      C1986   1.489       .  S
C1926      C1957   1.488       .  S
C1937      C1938   1.406       .  A
C1937      C1942   1.410       .  A
C1937      H1944   1.083       .  S
C1938      C1939   1.421   1_565  A
C1939      C1940   1.402   1_545  A
C1939      C1946   1.521       .  S
C1940      C1941   1.405       .  A
C1940      H1945   1.083   1_565  S
C1941      C1942   1.426       .  A
C1942      C1943   1.522       .  S
C1943      F1947   1.385       .  S
C1943      F1948   1.383       .  S
C1946      F1950   1.383       .  S
C1953      H1960   1.083       .  S
C1954      C1955   1.424       .  A
C1955      C1956   1.406       .  A
C1955      C1962   1.522       .  S
C1956      C1957   1.402       .  A
C1956      H1961   1.083       .  S
C1957      C1958   1.417   1_565  A
C1959      F1965   1.380       .  S
C1962      F1966   1.383       .  S
C1962      F1968   1.385       .  S
C1969      C1970   1.403   1_545  A
C1969      C1974   1.409       .  A
C1969      H1976   1.083       .  S
C1970      C1971   1.416       .  A
C1971      C1972   1.408       .  A
C1971      C1978   1.519       .  S
C1972      C1973   1.403   1_565  A
C1972      H1977   1.083       .  S
C1973      C1974   1.414       .  A
C1975      F1979   1.385       .  S
C1975      F1980   1.384       .  S
C1978      F1983   1.383       .  S
C1978      F1984   1.384       .  S
C1985      C1990   1.407       .  A
C1985      H1992   1.083       .  S
C1986      C1987   1.416       .  A
C1987      C1988   1.407       .  A
C1987      C1994   1.518       .  S
C1988      C1989   1.401   1_565  A
C1988      H1993   1.083       .  S
C1990      C1991   1.515       .  S
C1991      F1995   1.385       .  S
C1991      F1996   1.382       .  S
C1991      F1997   1.383       .  S
C1994      F1998   1.384       .  S
C1994      F1999   1.383       .  S
C1994      F2000   1.382       .  S
C2001      C2002   1.401       .  A
C2001      C2006   1.407       .  A
C2001      H2008   1.082       .  S
C2003      C2004   1.406       .  A
C2003      C2010   1.517       .  S
C2004      H2009   1.083       .  S
C2005      C2006   1.416       .  A
C2006      C2007   1.518       .  S
C2007      F2011   1.384       .  S
C2007      F2012   1.383       .  S
C2007      F2013   1.382       .  S
C2010      F2014   1.383       .  S
C2010      F2015   1.380       .  S
C2010      F2016   1.385       .  S
C2017      C2022   1.407       .  A
C2017      H2024   1.083       .  S
C2018      C2019   1.415       .  A
C2019      C2020   1.401       .  A
C2019      C2026   1.519       .  S
C2020      C2021   1.398   1_655  A
C2020      H2025   1.082       .  S
C2022      C2023   1.516       .  S
C2023      F2027   1.385       .  S
C2023      F2028   1.380       .  S
C2023      F2029   1.382       .  S
C2026      F2030   1.381       .  S
C2026      F2031   1.383       .  S
C2026      F2032   1.384       .  S
C2033      C2038   1.407       .  A
C2033      H2040   1.083       .  S
C2034      C2035   1.415       .  A
C2035      C2036   1.409       .  A
C2035      C2042   1.518       .  S
C2036      C2037   1.403       .  A
C2036      H2041   1.083       .  S
C2038      C2039   1.519       .  S
C2039      F2043   1.385       .  S
C2039      F2044   1.381       .  S
C2039      F2045   1.383       .  S
C2042      F2046   1.384       .  S
C2042      F2047   1.383       .  S
C2042      F2048   1.383       .  S
C2049      C2054   1.406       .  A
C2049      H2056   1.083       .  S
C2050      C2051   1.415       .  A
C2051      C2052   1.407       .  A
C2051      C2058   1.517       .  S
C2052      C2053   1.402       .  A
C2052      H2057   1.083       .  S
C2054      C2055   1.519       .  S
C2055      F2059   1.384       .  S
C2055      F2060   1.383       .  S
C2055      F2061   1.382       .  S
C2058      F2062   1.383       .  S
C2058      F2063   1.383       .  S
C2058      F2064   1.384       .  S
