geometry optimzed in LAMMPS
_audit_creation_date              2020-12-01 
_audit_creation_method            'lammps2cif' 
_symmetry_space_group_name_H-M    'P1' 
_symmetry_Int_Tables_number       1 
_symmetry_cell_setting            triclinic 
loop_ 
_symmetry_equiv_pos_as_xyz 
  x,y,z 
_cell_length_a                    41.70459712 
_cell_length_b                    38.916146227717846 
_cell_length_c                    68.38536061333531 
_cell_angle_alpha                 90.25239589891035 
_cell_angle_beta                  89.94200384646369 
_cell_angle_gamma                 89.92082332352571 
loop_ 
_atom_site_label 
_atom_site_type_symbol 
_atom_site_fract_x 
_atom_site_fract_y 
_atom_site_fract_z 
_atom_site_charge 
N1          N  0.43285344  0.49939941  0.50033843    -0.37500
N2          N  0.98074617  0.48518588  0.47040756    -0.58100
N3          N  0.03031925  0.99589132  0.49947293    -0.37500
N4          N  0.98256692  0.00707346  0.53014426    -0.58100
C5          C  0.41396275  0.48674427  0.48593977     0.26100
C6          C  0.41500701  0.00060218  0.51684892     0.26100
C7          C  0.04814150  0.48326940  0.48451628     0.26100
C8          C  0.04896191  0.99566363  0.51564852     0.26100
C9          C  0.45440997  0.48402935  0.45897006     0.34700
C10         C  0.00636547  0.48320033  0.45836187     0.34700
C11         C  0.45717325  0.01921177  0.54037535     0.34700
C12         C  0.00908521  0.01692471  0.54004677     0.34700
C13         C  0.38362432  0.48011194  0.49342777    -0.22800
C14         C  0.38425102  0.98903320  0.51286671    -0.22800
C15         C  0.07857165  0.47511943  0.49132773    -0.22800
C16         C  0.07905495  0.98289821  0.51091671    -0.22800
C17         C  0.46329465  0.48120607  0.43948732    -0.23800
C18         C  0.99627379  0.48071492  0.43910011    -0.23800
C19         C  0.46752410  0.03600414  0.55711408    -0.23800
C20         C  0.00047083  0.03456530  0.55690390    -0.23800
C21         C  0.42259861  0.48251815  0.46600959    -0.19200
C22         C  0.42477499  0.01454521  0.53502751    -0.19200
C23         C  0.04093101  0.01009515  0.53406461    -0.19200
C24         C  0.03849810  0.48038308  0.46467935    -0.19200
H25         H  0.36294501  0.47031953  0.48565583     0.13700
H26         H  0.36421662  0.98747740  0.52289864     0.13700
H27         H  0.09866401  0.46518233  0.48301552     0.13700
H28         H  0.09951285  0.98019492  0.52052101     0.13700
H29         H  0.44766062  0.47892364  0.42692532     0.12000
H30         H  0.01108807  0.47791406  0.42618509     0.12000
H31         H  0.45288401  0.04819468  0.56823675     0.12000
H32         H  0.01625345  0.04552237  0.56781765     0.12000
H33         H  0.45538543  0.51055309  0.49854645     0.25300
H34         H  0.00816818  0.00816071  0.49823948     0.25300
N35         N  0.03045825  0.24725103  0.49985605    -0.37500
N36         N  0.48177329  0.23373081  0.52916513    -0.58100
N37         N  0.43312186  0.24483761  0.49949749    -0.37500
N38         N  0.48172297  0.25525533  0.46940096    -0.58100
C39         C  0.04907468  0.23540903  0.51461721     0.26100
C40         C  0.04895822  0.24845570  0.48358873     0.26100
C41         C  0.41490587  0.23164355  0.51403060     0.26100
C42         C  0.41489770  0.24518411  0.48314904     0.26100
C43         C  0.00762462  0.23274169  0.54101451     0.34700
C44         C  0.45567668  0.23153232  0.54078151     0.34700
C45         C  0.00757651  0.26612813  0.45923524     0.34700
C46         C  0.45563842  0.26547555  0.45922455     0.34700
C47         C  0.07984844  0.22945137  0.50759206    -0.22800
C48         C  0.07976681  0.23772371  0.48810201    -0.22800
C49         C  0.38472403  0.22366189  0.50674570    -0.22800
C50         C  0.38470628  0.23233164  0.48732750    -0.22800
C51         C  0.99792082  0.22977719  0.56032917    -0.23800
C52         C  0.46495340  0.22905387  0.56018202    -0.23800
C53         C  0.99790452  0.28212523  0.44215163    -0.23800
C54         C  0.46492881  0.28177216  0.44216662    -0.23800
C55         C  0.03972090  0.23115541  0.53445556    -0.19200
C56         C  0.03977249  0.26176659  0.46516883    -0.19200
C57         C  0.42358101  0.25988748  0.46505501    -0.19200
C58         C  0.42386291  0.22853457  0.53395080    -0.19200
H59         H  0.10052294  0.22060608  0.51569422     0.13700
H60         H  0.10024967  0.23639600  0.47839335     0.13700
H61         H  0.36443217  0.21336681  0.51464615     0.13700
H62         H  0.36453436  0.22995843  0.47747069     0.13700
H63         H  0.01300564  0.22752080  0.57312949     0.12000
H64         H  0.44962180  0.22609312  0.57284103     0.12000
H65         H  0.01301120  0.29327832  0.43098193     0.12000
H66         H  0.44956583  0.29250329  0.43099559     0.12000
H67         H  0.00772733  0.25776037  0.50122803     0.25300
H68         H  0.45500578  0.25716696  0.50116015     0.25300
N69         N  0.26926236  0.31089510  0.40717962    -0.07000
N70         N  0.29499071  0.29145125  0.40977341    -0.59100
N71         N  0.19465780  0.33556809  0.41943311    -0.06700
N72         N  0.16945530  0.33385805  0.43094876    -0.61200
N73         N  0.19402943  0.31108626  0.40617289    -0.06300
N74         N  0.16801625  0.29190459  0.40852965    -0.59100
N75         N  0.26849134  0.33570744  0.42024417    -0.06000
N76         N  0.29344163  0.33382640  0.43196339    -0.61600
C77         C  0.30979653  0.30613349  0.42536269     0.95200
C78         C  0.15291584  0.30663298  0.42410530     0.95000
N79         N  0.19329676  0.43818477  0.40520517    -0.07200
N80         N  0.16655983  0.45648965  0.40670554    -0.59700
N81         N  0.26781790  0.41505703  0.41967719    -0.05300
N82         N  0.29314570  0.41686148  0.43107763    -0.61000
N83         N  0.26831372  0.43958472  0.40653739    -0.07200
N84         N  0.29412500  0.45894947  0.40888150    -0.60000
N85         N  0.19369616  0.41395645  0.41851871    -0.04900
N86         N  0.16734708  0.41477222  0.42910363    -0.61000
Mn87       Mn  0.23128623  0.37518888  0.42002530     1.18400
C88         C  0.15065760  0.44137304  0.42170721     0.97300
C89         C  0.30926383  0.44433438  0.42429714     0.97900
N90         N  0.19816343  0.30915115  0.35968027    -0.07200
N91         N  0.18041729  0.28281145  0.35411178    -0.63500
N92         N  0.27253065  0.33279392  0.34764720    -0.06000
N93         N  0.29231232  0.32265254  0.33363012    -0.64200
N94         N  0.27055728  0.30893329  0.36122390    -0.06700
N95         N  0.28888067  0.28248108  0.35663240    -0.63800
N96         N  0.20001224  0.33207214  0.34559283    -0.05600
N97         N  0.18374277  0.32129106  0.33020813    -0.64500
Mn98       Mn  0.23280556  0.30904843  0.38373460     1.10700
C99         C  0.17130972  0.29068106  0.33571331     0.98500
C100        C  0.30261046  0.29128551  0.33946545     0.98600
N101        N  0.26965144  0.44085742  0.36039403    -0.06800
N102        N  0.28728812  0.46766220  0.35562535    -0.62100
N103        N  0.19866092  0.41473826  0.34529420    -0.06100
N104        N  0.18004040  0.42320633  0.33045315    -0.58900
N105        N  0.19710922  0.43855287  0.35900182    -0.07400
N106        N  0.17745156  0.46338975  0.35371152    -0.61700
N107        N  0.27173818  0.41681796  0.34680981    -0.06400
N108        N  0.29098946  0.42723674  0.33257606    -0.58900
Mn109      Mn  0.23201060  0.44034512  0.38299345     1.20200
Mn110      Mn  0.23596508  0.37410174  0.34594961     1.10100
Cl111      Cl  0.23308298  0.37465972  0.38303642    -0.86800
C112        C  0.30090619  0.45891644  0.33836755     0.95500
C113        C  0.16673343  0.45361472  0.33587031     0.95300
N114        N  0.26906999  0.18856602  0.59382826    -0.07000
N115        N  0.29535667  0.20730217  0.59164264    -0.59100
N116        N  0.19437064  0.16344897  0.58136194    -0.06700
N117        N  0.16860425  0.16458171  0.57030698    -0.61200
N118        N  0.19371527  0.18795379  0.59463204    -0.06300
N119        N  0.16727183  0.20663256  0.59269686    -0.59100
N120        N  0.26842208  0.16381610  0.58072202    -0.06000
N121        N  0.29399169  0.16488650  0.56947887    -0.61600
C122        C  0.31057832  0.19207528  0.57632434     0.95200
C123        C  0.15186215  0.19154042  0.57741844     0.95000
N124        N  0.19434561  0.06039539  0.59430835    -0.07200
N125        N  0.16847584  0.04099414  0.59174776    -0.59700
N126        N  0.26886502  0.08486563  0.58084067    -0.05300
N127        N  0.29439418  0.08380098  0.56958836    -0.61000
N128        N  0.26997829  0.06054879  0.59408403    -0.07200
N129        N  0.29668292  0.04229743  0.59205168    -0.60000
N130        N  0.19513330  0.08469101  0.58106897    -0.04900
N131        N  0.17032398  0.08253455  0.56931438    -0.61000
Mn132      Mn  0.23171048  0.12422418  0.58046519     1.18400
C133        C  0.15377522  0.05528098  0.57598304     0.97300
C134        C  0.31160823  0.05724625  0.57660536     0.97900
N135        N  0.19685155  0.18963020  0.64108297    -0.07200
N136        N  0.17902353  0.21583241  0.64684350    -0.63500
N137        N  0.27078695  0.16668201  0.65358918    -0.06000
N138        N  0.29001198  0.17705677  0.66783028    -0.64200
N139        N  0.26929375  0.19036329  0.63989027    -0.06700
N140        N  0.28739036  0.21687344  0.64457543    -0.63800
N141        N  0.19828390  0.16626228  0.65493675    -0.05600
N142        N  0.18171955  0.17651684  0.67034952    -0.64500
Mn143      Mn  0.23208745  0.19016130  0.61714146     1.10700
C144        C  0.16952861  0.20736699  0.66510613     0.98500
C145        C  0.30054756  0.20831550  0.66192518     0.98600
N146        N  0.26926834  0.05888735  0.64025920    -0.06800
N147        N  0.28714722  0.03239275  0.64529470    -0.62100
N148        N  0.19754652  0.08394481  0.65433200    -0.06100
N149        N  0.17788868  0.07535614  0.66864315    -0.58900
N150        N  0.19676778  0.06041275  0.64044582    -0.07400
N151        N  0.17665787  0.03567270  0.64504977    -0.61700
N152        N  0.27057803  0.08298569  0.65383250    -0.06400
N153        N  0.28950092  0.07303748  0.66828476    -0.58900
Mn154      Mn  0.23254792  0.05893368  0.61710233     1.20200
Mn155      Mn  0.23449166  0.12489638  0.65455803     1.10100
Cl156      Cl  0.23274805  0.12456140  0.61744801    -0.86800
C157        C  0.30008078  0.04155007  0.66266497     0.95500
C158        C  0.16484091  0.04518653  0.66266690     0.95300
N159        N  0.19188373  0.00287668  0.00017483    -0.37500
N160        N  0.23961441  0.48727487  0.02960704    -0.58100
N161        N  0.28933641  0.00009896  0.00065268    -0.37500
N162        N  0.24166164  0.01294563  0.97051693    -0.58100
C163        C  0.17311039  0.48874235  0.01416199     0.26100
C164        C  0.17438472  0.00391067  0.98353707     0.26100
C165        C  0.30738371  0.48743939  0.01541743     0.26100
C166        C  0.30822592  0.00154225  0.98454968     0.26100
C167        C  0.21328982  0.48512618  0.04106406     0.34700
C168        C  0.26529251  0.48473079  0.04153631     0.34700
C169        C  0.21616267  0.02545544  0.96068559     0.34700
C170        C  0.26799610  0.02363615  0.96078404     0.34700
C171        C  0.14330006  0.48098501  0.00628989    -0.22800
C172        C  0.14408358  0.99065945  0.98701856    -0.22800
C173        C  0.33819542  0.48099917  0.00855114    -0.22800
C174        C  0.33868035  0.98982029  0.98914204    -0.22800
C175        C  0.22223175  0.48092321  0.06041576    -0.23800
C176        C  0.25521574  0.48066912  0.06071820    -0.23800
C177        C  0.22624857  0.04349603  0.94437818    -0.23800
C178        C  0.25919100  0.04229991  0.94442358    -0.23800
C179        C  0.18145371  0.48402080  0.03405710    -0.19200
C180        C  0.18393257  0.01934944  0.96579189    -0.19200
C181        C  0.29983631  0.01635888  0.96637310    -0.19200
C182        C  0.29753881  0.48308401  0.03516083    -0.19200
H183        H  0.12288785  0.46982328  0.01368682     0.13700
H184        H  0.12441369  0.98848719  0.97677887     0.13700
H185        H  0.35857684  0.47159100  0.01671940     0.13700
H186        H  0.35938087  0.98851850  0.97960415     0.13700
H187        H  0.20664064  0.47760309  0.07292727     0.12000
H188        H  0.27005503  0.47710075  0.07352609     0.12000
H189        H  0.21143114  0.05615232  0.93359439     0.12000
H190        H  0.27484977  0.05399960  0.93372760     0.12000
H191        H  0.21368837  0.01509278  0.00237339     0.25300
H192        H  0.26678376  0.01104647  0.00206102     0.25300
N193        N  0.19151910  0.25005069  0.99914493    -0.37500
N194        N  0.24057348  0.23959880  0.97014421    -0.58100
N195        N  0.28811703  0.25179549  0.00015708    -0.37500
N196        N  0.23897594  0.26192081  0.02961312    -0.58100
C197        C  0.17394392  0.23618051  0.98447335     0.26100
C198        C  0.17311614  0.24990577  0.01542803     0.26100
C199        C  0.30633814  0.23769119  0.98584610     0.26100
C200        C  0.30524769  0.25015235  0.01691992     0.26100
C201        C  0.21495425  0.23917573  0.95812247     0.34700
C202        C  0.26686065  0.24075126  0.95868814     0.34700
C203        C  0.21269436  0.27442715  0.03870897     0.34700
C204        C  0.26457242  0.27429900  0.03942410     0.34700
C205        C  0.14401339  0.22693760  0.99162064    -0.22800
C206        C  0.14345616  0.23574437  0.01110429    -0.22800
C207        C  0.33538282  0.22695405  0.99367509    -0.22800
C208        C  0.33468125  0.23487668  0.01327237    -0.22800
C209        C  0.22494853  0.24021520  0.93880302    -0.23800
C210        C  0.25796863  0.24128279  0.93916062    -0.23800
C211        C  0.22156685  0.29453048  0.05459538    -0.23800
C212        C  0.25460953  0.29443443  0.05505348    -0.23800
C213        C  0.18310236  0.23442427  0.96451125    -0.19200
C214        C  0.18098301  0.26609823  0.03334048    -0.19200
C215        C  0.29658735  0.26606979  0.03474154    -0.19200
C216        C  0.29837902  0.23652675  0.96571310    -0.19200
H217        H  0.12414954  0.21608153  0.98352769     0.13700
H218        H  0.12313483  0.23301437  0.02082489     0.13700
H219        H  0.35543070  0.21540996  0.98602544     0.13700
H220        H  0.35397498  0.23070850  0.02357165     0.13700
H221        H  0.21007617  0.23929750  0.92585125     0.12000
H222        H  0.27362810  0.24119976  0.92652957     0.12000
H223        H  0.20589789  0.30766661  0.06481200     0.12000
H224        H  0.26954264  0.30748714  0.06567126     0.12000
H225        H  0.21298040  0.26340514  0.99760638     0.25300
H226        H  0.26728500  0.26603242  0.99811152     0.25300
N227        N  0.45210699  0.19086334  0.90639665    -0.07000
N228        N  0.42581638  0.20963423  0.90840621    -0.59100
N229        N  0.52741473  0.16799327  0.91942160    -0.06700
N230        N  0.05365721  0.16956300  0.93006689    -0.61200
N231        N  0.52709814  0.19255327  0.90631038    -0.06300
N232        N  0.05322352  0.21174099  0.90795127    -0.59100
N233        N  0.45289861  0.16653471  0.91962828    -0.06000
N234        N  0.42712226  0.16779475  0.93074983    -0.61600
C235        C  0.41051261  0.19479549  0.92367172     0.95200
C236        C  0.06950520  0.19695873  0.92289965     0.95000
N237        N  0.52940043  0.06419733  0.90682922    -0.07200
N238        N  0.05570410  0.04549774  0.90924860    -0.59700
N239        N  0.45484644  0.08771092  0.91989282    -0.05300
N240        N  0.42985158  0.08605290  0.93152158    -0.61000
N241        N  0.45408043  0.06309077  0.90669152    -0.07200
N242        N  0.42806568  0.04396051  0.90918844    -0.60000
N243        N  0.52829738  0.08892842  0.91993164    -0.04900
N244        N  0.05342785  0.08774044  0.93148110    -0.61000
Mn245      Mn  0.49089136  0.12784120  0.92028044     1.18400
C246        C  0.07041038  0.06067068  0.92475344     0.97300
C247        C  0.41324096  0.05880943  0.92482765     0.97900
N248        N  0.02574212  0.19281318  0.86059127    -0.07200
N249        N  0.04507900  0.21841694  0.85624606    -0.63500
N250        N  0.45348963  0.16723466  0.84646278    -0.06000
N251        N  0.43432356  0.17606201  0.83193919    -0.64200
N252        N  0.45271922  0.19096470  0.86027198    -0.06700
N253        N  0.43275012  0.21587843  0.85544244    -0.63800
N254        N  0.02627487  0.16930979  0.84670612    -0.05600
N255        N  0.04563756  0.17904619  0.83248866    -0.64500
Mn256      Mn  0.48931236  0.19286251  0.88355663     1.10700
C257        C  0.05760564  0.20954799  0.83873439     0.98500
C258        C  0.42124813  0.20637905  0.83773692     0.98600
N259        N  0.45614965  0.06061887  0.86015892    -0.06800
N260        N  0.43796319  0.03428892  0.85509277    -0.62100
N261        N  0.02888095  0.08665855  0.84707794    -0.06100
N262        N  0.05009048  0.07882360  0.83339910    -0.58900
N263        N  0.02917766  0.06315178  0.86087693    -0.07400
N264        N  0.05081653  0.03934216  0.85693809    -0.61700
N265        N  0.45606120  0.08403332  0.84629079    -0.06400
N266        N  0.43808235  0.07367076  0.83150499    -0.58900
Mn267      Mn  0.49208066  0.06155261  0.88378092     1.20200
Mn268      Mn  0.49112230  0.12678608  0.84617327     1.10100
Cl269      Cl  0.49073888  0.12721106  0.88332884    -0.86800
C270        C  0.42655769  0.04277956  0.83724262     0.95500
C271        C  0.06388823  0.04934862  0.83977688     0.95300
N272        N  0.13494178  0.37787397  0.72491447    -0.37500
N273        N  0.11845115  0.32598549  0.75367174    -0.58100
N274        N  0.10767746  0.37921258  0.78313462    -0.37500
N275        N  0.12361103  0.43145327  0.75435069    -0.58100
C276        C  0.14741575  0.34943797  0.71624967     0.26100
C277        C  0.14803478  0.40547015  0.71591524     0.26100
C278        C  0.09244703  0.35250633  0.79164617     0.26100
C279        C  0.09775812  0.40822333  0.79236722     0.26100
C280        C  0.12611583  0.30466116  0.73870683     0.34700
C281        C  0.10860389  0.30570773  0.76850106     0.34700
C282        C  0.14043004  0.44923278  0.74090942     0.34700
C283        C  0.12675283  0.44894212  0.77135385     0.34700
C284        C  0.16904485  0.35904558  0.70190509    -0.22800
C285        C  0.17003602  0.39429013  0.70203576    -0.22800
C286        C  0.07285689  0.36462740  0.80656782    -0.22800
C287        C  0.07598060  0.39983286  0.80691186    -0.22800
C288        C  0.12064949  0.27083249  0.74399921    -0.23800
C289        C  0.11041261  0.27143615  0.76294970    -0.23800
C290        C  0.15613453  0.47654991  0.74979053    -0.23800
C291        C  0.14658237  0.47703733  0.76896004    -0.23800
C292        C  0.14007996  0.31490079  0.72081755    -0.19200
C293        C  0.14214201  0.44041321  0.72084634    -0.19200
C294        C  0.10930120  0.44167581  0.78844539    -0.19200
C295        C  0.09598704  0.31742826  0.78655149    -0.19200
H296        H  0.18356259  0.34234589  0.69279246     0.13700
H297        H  0.18616366  0.40981684  0.69338324     0.13700
H298        H  0.05752638  0.34967484  0.81605354     0.13700
H299        H  0.06357621  0.41714559  0.81676916     0.13700
H300        H  0.12408015  0.24781159  0.73533961     0.12000
H301        H  0.10456020  0.24895198  0.77146534     0.12000
H302        H  0.17316033  0.49404642  0.74325221     0.12000
H303        H  0.15367362  0.49560253  0.77996210     0.12000
H304        H  0.11641462  0.37860304  0.73511674     0.25300
H305        H  0.12601008  0.37755454  0.77283208     0.25300
N306        N  0.36511362  0.42749945  0.74994528    -0.37500
N307        N  0.37880529  0.37471114  0.77880822    -0.58100
N308        N  0.36322969  0.32249828  0.74996831    -0.37500
N309        N  0.34643948  0.37533176  0.72198097    -0.58100
C310        C  0.36599174  0.44584595  0.76678397     0.26100
C311        C  0.34836092  0.44626780  0.73680712     0.26100
C312        C  0.36327690  0.30423614  0.76677412     0.26100
C313        C  0.34580493  0.30453708  0.73672578     0.26100
C314        C  0.39237557  0.40232451  0.78753224     0.34700
C315        C  0.39118222  0.34663590  0.78763137     0.34700
C316        C  0.34784885  0.40314365  0.71022569     0.34700
C317        C  0.34701060  0.34739436  0.71016440     0.34700
C318        C  0.34936466  0.47641224  0.76441262    -0.22800
C319        C  0.33809471  0.47661614  0.74550743    -0.22800
C320        C  0.34537370  0.27456521  0.76428073    -0.22800
C321        C  0.33421640  0.27481818  0.74533795    -0.22800
C322        C  0.41369356  0.39175570  0.80184335    -0.23800
C323        C  0.41291555  0.35644081  0.80191956    -0.23800
C324        C  0.34983787  0.39285306  0.69083593    -0.23800
C325        C  0.34938314  0.35749954  0.69079549    -0.23800
C326        C  0.38374146  0.43676604  0.78359873    -0.19200
C327        C  0.34410451  0.43741604  0.71688017    -0.19200
C328        C  0.34226365  0.31331192  0.71674809    -0.19200
C329        C  0.38119497  0.31257241  0.78370736    -0.19200
H330        H  0.34596155  0.49662083  0.77514273     0.13700
H331        H  0.32420740  0.49699853  0.73890668     0.13700
H332        H  0.34102172  0.25465837  0.77495832     0.13700
H333        H  0.31952767  0.25513413  0.73863639     0.13700
H334        H  0.42814757  0.40775158  0.81133807     0.12000
H335        H  0.42666787  0.33995670  0.81147253     0.12000
H336        H  0.35100622  0.40910601  0.67805499     0.12000
H337        H  0.35017908  0.34116958  0.67795603     0.12000
H338        H  0.37842214  0.40553372  0.74694515     0.25300
H339        H  0.37749675  0.34377624  0.74700867     0.25300
N340        N  0.13965233  0.12194590  0.27368960    -0.37500
N341        N  0.12778091  0.06973490  0.24407902    -0.58100
N342        N  0.11173439  0.12371791  0.21572061    -0.37500
N343        N  0.12297212  0.17552644  0.24552596    -0.58100
C344        C  0.15213254  0.09403363  0.28277067     0.26100
C345        C  0.15058933  0.15008098  0.28329379     0.26100
C346        C  0.10098349  0.09498627  0.20662446     0.26100
C347        C  0.09645725  0.15082216  0.20760731     0.26100
C348        C  0.14524556  0.05147796  0.25701050     0.34700
C349        C  0.13124703  0.05377762  0.22664327     0.34700
C350        C  0.13149584  0.19607067  0.26065484     0.34700
C351        C  0.11495309  0.19657154  0.23059227     0.34700
C352        C  0.17231556  0.10483267  0.29769336    -0.22800
C353        C  0.17067737  0.14002705  0.29835364    -0.22800
C354        C  0.07845935  0.10388750  0.19262023    -0.22800
C355        C  0.07579991  0.13916886  0.19313307    -0.22800
C356        C  0.16168162  0.02540682  0.24737544    -0.23800
C357        C  0.15194816  0.02616997  0.22822601    -0.23800
C358        C  0.12877326  0.23026025  0.25529277    -0.23800
C359        C  0.11921980  0.23056294  0.23618290    -0.23800
C360        C  0.14708965  0.05918264  0.27722451    -0.19200
C361        C  0.14345214  0.18475845  0.27891073    -0.19200
C362        C  0.10117810  0.18581218  0.21262317    -0.19200
C363        C  0.11277003  0.06142308  0.21003943    -0.19200
H364        H  0.18758813  0.08911973  0.30680558     0.13700
H365        H  0.18378253  0.15642692  0.30835655     0.13700
H366        H  0.06541304  0.08688328  0.18293623     0.13700
H367        H  0.06020537  0.15446894  0.18398876     0.13700
H368        H  0.17949261  0.00814981  0.25333992     0.12000
H369        H  0.15943049  0.00874357  0.21670881     0.12000
H370        H  0.13367940  0.25286602  0.26403453     0.12000
H371        H  0.11538501  0.25348011  0.22761194     0.12000
H372        H  0.12228340  0.12171023  0.26279884     0.25300
H373        H  0.13069917  0.12484083  0.22559785     0.25300
N374        N  0.36542955  0.07357470  0.25106108    -0.37500
N375        N  0.34637620  0.12573740  0.27852345    -0.58100
N376        N  0.36175338  0.17838059  0.24986796    -0.37500
N377        N  0.37761477  0.12620821  0.22144227    -0.58100
C378        C  0.34898879  0.05478298  0.26432902     0.26100
C379        C  0.36648723  0.05506336  0.23433427     0.26100
C380        C  0.34434711  0.19613252  0.26320435     0.26100
C381        C  0.36081831  0.19624688  0.23295194     0.26100
C382        C  0.34838576  0.09828132  0.29052514     0.34700
C383        C  0.34780229  0.15397742  0.29003511     0.34700
C384        C  0.39165819  0.09859417  0.21298195     0.34700
C385        C  0.38924812  0.15421508  0.21218731     0.34700
C386        C  0.33909088  0.02420511  0.25578986    -0.22800
C387        C  0.35037722  0.02426735  0.23689027    -0.22800
C388        C  0.33158732  0.22528345  0.25453884    -0.22800
C389        C  0.34211444  0.22540807  0.23542748    -0.22800
C390        C  0.35155196  0.10906945  0.30974382    -0.23800
C391        C  0.35142562  0.14440593  0.30942928    -0.23800
C392        C  0.41239607  0.10904564  0.19831849    -0.23800
C393        C  0.41092551  0.14433121  0.19783997    -0.23800
C394        C  0.34470476  0.06385216  0.28422184    -0.19200
C395        C  0.38389206  0.06415462  0.21741854    -0.19200
C396        C  0.37892829  0.18824158  0.21603832    -0.19200
C397        C  0.34213623  0.18779169  0.28329343    -0.19200
H398        H  0.32542133  0.50377314  0.26247715     0.13700
H399        H  0.34724897  0.50385810  0.22626317     0.13700
H400        H  0.31666884  0.24472669  0.26133944     0.13700
H401        H  0.33697991  0.24494450  0.22465381     0.13700
H402        H  0.35347664  0.09316558  0.32263105     0.12000
H403        H  0.35313836  0.16108939  0.32208377     0.12000
H404        H  0.42693781  0.09296208  0.18887723     0.12000
H405        H  0.42426838  0.16069161  0.18801837     0.12000
H406        H  0.37856459  0.09592279  0.25386349     0.25300
H407        H  0.37686419  0.15764890  0.25288208     0.25300
N408        N  0.45066129  0.31323171  0.09421060    -0.07000
N409        N  0.42422064  0.29468745  0.09199238    -0.59100
N410        N  0.52492092  0.33608801  0.07971530    -0.06700
N411        N  0.04911845  0.33362423  0.06748281    -0.61200
N412        N  0.52596381  0.31151514  0.09279606    -0.06300
N413        N  0.05143086  0.29171775  0.08969751    -0.59100
N414        N  0.45158323  0.33770653  0.08106358    -0.06000
N415        N  0.42619577  0.33657873  0.06974899    -0.61600
C416        C  0.40925653  0.30974586  0.07658024     0.95200
C417        C  0.06557772  0.30598142  0.07375476     0.95000
N418        N  0.52708940  0.44003381  0.09358167    -0.07200
N419        N  0.05285539  0.45940373  0.09114155    -0.59700
N420        N  0.45244470  0.41627226  0.08141923    -0.05300
N421        N  0.42671841  0.41785355  0.07039105    -0.61000
N422        N  0.45201771  0.44048329  0.09485500    -0.07200
N423        N  0.42567383  0.45939682  0.09309102    -0.60000
N424        N  0.52636153  0.41548422  0.08035250    -0.04900
N425        N  0.05150843  0.41731523  0.06874603    -0.61000
Mn426      Mn  0.48893203  0.37640457  0.08014391     1.18400
C427        C  0.06777496  0.44482983  0.07554805     0.97300
C428        C  0.41017139  0.44474018  0.07769679     0.97900
N429        N  0.02696281  0.31027460  0.13891034    -0.07200
N430        N  0.04644544  0.28457783  0.14299465    -0.63500
N431        N  0.45517481  0.33444622  0.15462272    -0.06000
N432        N  0.43685335  0.32491601  0.16944355    -0.64200
N433        N  0.45399574  0.31116961  0.14057576    -0.06700
N434        N  0.43458593  0.28586841  0.14552480    -0.63800
N435        N  0.02781283  0.33359282  0.15291424    -0.05600
N436        N  0.04753864  0.32369130  0.16688972    -0.64500
Mn437      Mn  0.48932047  0.31042845  0.11647485     1.10700
C438        C  0.05932756  0.29319967  0.16045362     0.98500
C439        C  0.42377375  0.29471613  0.16351319     0.98600
N440        N  0.45562730  0.44116036  0.14115121    -0.06800
N441        N  0.43664837  0.46676102  0.14635542    -0.62100
N442        N  0.02922454  0.41636474  0.15315504    -0.06100
N443        N  0.05092629  0.42435202  0.16649227    -0.58900
N444        N  0.02869909  0.43994971  0.13940596    -0.07400
N445        N  0.05028919  0.46389497  0.14298324    -0.61700
N446        N  0.45636125  0.41757862  0.15491130    -0.06400
N447        N  0.43817083  0.42712300  0.16980082    -0.58900
Mn448      Mn  0.49072165  0.44155003  0.11713592     1.20200
Mn449      Mn  0.49213209  0.37555468  0.15437418     1.10100
Cl450      Cl  0.49023947  0.37596205  0.11716017    -0.86800
C451        C  0.42565880  0.45766742  0.16419363     0.95500
C452        C  0.06419685  0.45393921  0.15988557     0.95300
C453        C  0.41212716  0.00852505  0.21064390    -0.14200
C454        C  0.39380678  0.03626992  0.20377934     0.07900
C455        C  0.38459217  0.03699827  0.18405553    -0.14200
C456        C  0.39439209  0.51093115  0.17125806    -0.14200
C457        C  0.41290757  0.48333344  0.17808631     0.07900
C458        C  0.42136667  0.98210417  0.19794325    -0.14200
H459        H  0.41948195  0.00752884  0.22582020     0.11900
H460        H  0.37007879  0.05793015  0.17855583     0.11900
H461        H  0.38766642  0.51238790  0.15598948     0.11900
H462        H  0.43601830  0.96134621  0.20351197     0.11900
C463        C  0.38271101  0.21430685  0.18226958    -0.14200
C464        C  0.38820722  0.21669853  0.20250993     0.07900
C465        C  0.40355404  0.24616070  0.20991396    -0.14200
C466        C  0.41389062  0.27223147  0.19735769    -0.14200
C467        C  0.40956140  0.26918548  0.17705333     0.07900
C468        C  0.39361251  0.24008556  0.16965844    -0.14200
H469        H  0.37056104  0.19212587  0.17619430     0.11900
H470        H  0.40819131  0.24862170  0.22543857     0.11900
H471        H  0.42632264  0.29417085  0.20349461     0.11900
H472        H  0.38990283  0.23708757  0.15407163     0.11900
C473        C  0.07783783  0.47653849  0.19307970    -0.14200
C474        C  0.08089304  0.47880699  0.17269730     0.07900
C475        C  0.09679192  0.00727232  0.16461749    -0.14200
C476        C  0.10819456  0.03372537  0.17668437    -0.14200
C477        C  0.10334464  0.03238462  0.19698528     0.07900
C478        C  0.08867694  0.00320254  0.20507409    -0.14200
H479        H  0.06557200  0.45502329  0.19971347     0.11900
H480        H  0.09961437  0.00947430  0.14892669     0.11900
H481        H  0.11998793  0.05565530  0.17016694     0.11900
H482        H  0.08473934  0.00154507  0.22070229     0.11900
C483        C  0.10214607  0.21477958  0.17981365    -0.14200
C484        C  0.08954411  0.21267736  0.19884192     0.07900
C485        C  0.06677272  0.23708279  0.20497559    -0.14200
C486        C  0.05816958  0.26421506  0.19278403    -0.14200
C487        C  0.07100368  0.26652927  0.17386947     0.07900
C488        C  0.09256956  0.24126941  0.16731113    -0.14200
H489        H  0.11951766  0.19604712  0.17472654     0.11900
H490        H  0.05623454  0.23553115  0.21942768     0.11900
H491        H  0.04077091  0.28284990  0.19795299     0.11900
H492        H  0.10218072  0.24225854  0.15260246     0.11900
C493        C  0.07547004  0.52677673  0.80626350    -0.14200
C494        C  0.07983180  0.02448799  0.82656079     0.07900
C495        C  0.09630508  0.99602711  0.83422087    -0.14200
C496        C  0.10699845  0.46959626  0.82185899    -0.14200
C497        C  0.10081500  0.47090281  0.80168890     0.07900
C498        C  0.08556700  0.50010542  0.79398954    -0.14200
H499        H  0.06273485  0.54830120  0.79994866     0.11900
H500        H  0.10011621  0.99380054  0.84982913     0.11900
H501        H  0.11923514  0.94765306  0.82807815     0.11900
H502        H  0.08058187  0.50176363  0.77847886     0.11900
C503        C  0.09333205  0.25847201  0.83034373    -0.14200
C504        C  0.06826335  0.23626358  0.82515903     0.07900
C505        C  0.05100182  0.24210565  0.80789763    -0.14200
C506        C  0.05885054  0.26970864  0.79587558    -0.14200
C507        C  0.08478170  0.29111691  0.80061558     0.07900
C508        C  0.10183404  0.28551965  0.81799440    -0.14200
H509        H  0.10643710  0.25465990  0.84383132     0.11900
H510        H  0.03097266  0.22579650  0.80396013     0.11900
H511        H  0.04537813  0.27382399  0.78255340     0.11900
H512        H  0.12194366  0.30179678  0.82181406     0.11900
C513        C  0.39679142  0.98821380  0.83039783    -0.14200
C514        C  0.41381010  0.01679857  0.82344535     0.07900
C515        C  0.42030020  0.01923293  0.80333776    -0.14200
C516        C  0.41057799  0.49322128  0.79049718    -0.14200
C517        C  0.39363929  0.46455700  0.79742736     0.07900
C518        C  0.38641509  0.46255099  0.81746849    -0.14200
H519        H  0.39155091  0.98573645  0.84584229     0.11900
H520        H  0.43374626  0.04074090  0.79760251     0.11900
H521        H  0.41656357  0.49526056  0.77512843     0.11900
H522        H  0.37305983  0.44090363  0.82311995     0.11900
C523        C  0.41423562  0.22862377  0.80368291    -0.14200
C524        C  0.40819146  0.23191517  0.82381878     0.07900
C525        C  0.39216106  0.26140369  0.83068295    -0.14200
C526        C  0.38275775  0.28727494  0.81768781    -0.14200
C527        C  0.38979042  0.28448281  0.79762557     0.07900
C528        C  0.40540628  0.25475089  0.79077093    -0.14200
H529        H  0.42687956  0.20642312  0.79797141     0.11900
H530        H  0.38724597  0.26461009  0.84613925     0.11900
H531        H  0.37041657  0.30974127  0.82331860     0.11900
H532        H  0.41123714  0.25202510  0.77540342     0.11900
C533        C  0.14104833  0.25597143  0.06031651    -0.14200
C534        C  0.15404418  0.27746963  0.04588703     0.07900
C535        C  0.13884349  0.30848697  0.04148437    -0.14200
C536        C  0.11050691  0.31761436  0.05091427    -0.14200
C537        C  0.09670421  0.29593697  0.06501731     0.07900
C538        C  0.11248840  0.26522005  0.06991461    -0.14200
H539        H  0.15239337  0.23163371  0.06361432     0.11900
H540        H  0.14840751  0.32510954  0.03023073     0.11900
H541        H  0.09908057  0.34152612  0.04682831     0.11900
H542        H  0.10234234  0.24805167  0.08068367     0.11900
C543        C  0.33881312  0.30848380  0.04219166    -0.14200
C544        C  0.32295963  0.27830386  0.04745484     0.07900
C545        C  0.33459363  0.25866092  0.06313366    -0.14200
C546        C  0.36237365  0.26899869  0.07318260    -0.14200
C547        C  0.37871388  0.29891183  0.06749859     0.07900
C548        C  0.36630435  0.31870207  0.05208908    -0.14200
H549        H  0.33036514  0.32362954  0.02997050     0.11900
H550        H  0.32278880  0.23494547  0.06713943     0.11900
H551        H  0.37148033  0.25327392  0.08496548     0.11900
H552        H  0.37827304  0.34185037  0.04728886     0.11900
C553        C  0.13881918  0.25059816  0.94149875    -0.14200
C554        C  0.15805194  0.22509286  0.95004210     0.07900
C555        C  0.15016746  0.19043494  0.94728663    -0.14200
C556        C  0.12211188  0.18145467  0.93741513    -0.14200
C557        C  0.10167705  0.20692633  0.92991113     0.07900
C558        C  0.11088850  0.24153831  0.93127788    -0.14200
H559        H  0.14452075  0.27748857  0.94365517     0.11900
H560        H  0.16465419  0.17046641  0.95386802     0.11900
H561        H  0.11569109  0.15456872  0.93631719     0.11900
H562        H  0.09546450  0.26158029  0.92563749     0.11900
C563        C  0.34292274  0.25065811  0.94245758    -0.14200
C564        C  0.32381006  0.22605100  0.95182971     0.07900
C565        C  0.33147918  0.19113390  0.95007512    -0.14200
C566        C  0.35920444  0.18099938  0.94023092    -0.14200
C567        C  0.37926336  0.20559403  0.93159969     0.07900
C568        C  0.37038239  0.24039838  0.93214021    -0.14200
H569        H  0.33732087  0.27774350  0.94383694     0.11900
H570        H  0.31696397  0.17193694  0.95731995     0.11900
H571        H  0.36547072  0.15398198  0.93983107     0.11900
H572        H  0.38560917  0.25972412  0.92559601     0.11900
C573        C  0.13559379  0.49952892  0.05622298    -0.14200
C574        C  0.15537000  0.47429649  0.04772340     0.07900
C575        C  0.14772784  0.43952581  0.05007120    -0.14200
C576        C  0.11968909  0.43009262  0.05979853    -0.14200
C577        C  0.09915631  0.45524731  0.06765528     0.07900
C578        C  0.10778262  0.49001618  0.06638036    -0.14200
H579        H  0.14104597  0.52650839  0.05431728     0.11900
H580        H  0.16262878  0.41980486  0.04347839     0.11900
H581        H  0.11360233  0.40310156  0.06075479     0.11900
H582        H  0.09216838  0.50978941  0.07225641     0.11900
C583        C  0.33887738  0.49739975  0.06074801    -0.14200
C584        C  0.32255449  0.47279455  0.04941421     0.07900
C585        C  0.33299023  0.43862241  0.04951472    -0.14200
C586        C  0.36070431  0.42955582  0.05959037    -0.14200
C587        C  0.37830145  0.45435257  0.07004040     0.07900
C588        C  0.36653638  0.48812985  0.07120139    -0.14200
H589        H  0.33109366  0.02395809  0.06072954     0.11900
H590        H  0.32075071  0.41940573  0.04078344     0.11900
H591        H  0.36904549  0.40324588  0.05860242     0.11900
H592        H  0.37969064  0.50764597  0.07916511     0.11900
C593        C  0.14372692  0.06323493  0.95681083    -0.14200
C594        C  0.15817084  0.03159301  0.95270504     0.07900
C595        C  0.14534011  0.01030911  0.93804453    -0.14200
C596        C  0.11724938  0.02003546  0.92821819    -0.14200
C597        C  0.10179536  0.05101584  0.93311632     0.07900
C598        C  0.11583221  0.07285295  0.94713004    -0.14200
H599        H  0.15332207  0.07981630  0.96814521     0.11900
H600        H  0.15624119  0.48563397  0.93487528     0.11900
H601        H  0.10699070  0.50285026  0.91742511     0.11900
H602        H  0.10467605  0.09701509  0.95113445     0.11900
C603        C  0.34218933  0.05871668  0.95888209    -0.14200
C604        C  0.32647413  0.02831435  0.95374224     0.07900
C605        C  0.33801433  0.00852020  0.93798257    -0.14200
C606        C  0.36589734  0.01858468  0.92796110    -0.14200
C607        C  0.38238377  0.04843614  0.93371190     0.07900
C608        C  0.36975162  0.06870391  0.94898434    -0.14200
H609        H  0.33358995  0.07420448  0.97101116     0.11900
H610        H  0.32607000  0.98486878  0.93390502     0.11900
H611        H  0.37499896  0.00266306  0.91617254     0.11900
H612        H  0.38162128  0.09203884  0.95369795     0.11900
C613        C  0.14939722  0.48508089  0.67103887    -0.14200
C614        C  0.15232171  0.01963508  0.67657123     0.07900
C615        C  0.14554248  0.02888198  0.69590197    -0.14200
C616        C  0.13964444  0.00359997  0.70986056    -0.14200
C617        C  0.14285479  0.46822618  0.70523728     0.07900
C618        C  0.14384553  0.45988650  0.68509382    -0.14200
H619        H  0.15240154  0.47728348  0.65592398     0.11900
H620        H  0.14541638  0.05563314  0.70034603     0.11900
H621        H  0.13251524  0.01252748  0.72413580     0.11900
H622        H  0.14051419  0.43395768  0.67985789     0.11900
C623        C  0.17689816  0.23508588  0.69778318    -0.14200
C624        C  0.16131718  0.23410936  0.67957987     0.07900
C625        C  0.13992284  0.26051156  0.67466893    -0.14200
C626        C  0.13336026  0.28693788  0.68801390    -0.14200
C627        C  0.14866285  0.28775504  0.70628680     0.07900
C628        C  0.17107569  0.26205337  0.71087347    -0.14200
H629        H  0.19416288  0.21547222  0.70169065     0.11900
H630        H  0.12810618  0.26048883  0.66057133     0.11900
H631        H  0.11616315  0.30666040  0.68417256     0.11900
H632        H  0.18351364  0.26254960  0.72476997     0.11900
C633        C  0.33838106  0.52165263  0.68856966    -0.14200
C634        C  0.31151511  0.01556980  0.67673481     0.07900
C635        C  0.29535367  0.98406009  0.67826444    -0.14200
C636        C  0.30586650  0.45897868  0.69133502    -0.14200
C637        C  0.33327721  0.46445237  0.70284054     0.07900
C638        C  0.34948810  0.49608247  0.70130795    -0.14200
H639        H  0.35110205  0.54583651  0.68765373     0.11900
H640        H  0.27422246  0.97902068  0.66951668     0.11900
H641        H  0.29251489  0.43522150  0.69250848     0.11900
H642        H  0.37064985  0.50099400  0.71004452     0.11900
C643        C  0.30581547  0.29206255  0.68995058    -0.14200
C644        C  0.33193374  0.28620540  0.70247484     0.07900
C645        C  0.34772867  0.25420618  0.70154002    -0.14200
C646        C  0.33738496  0.22856979  0.68852723    -0.14200
C647        C  0.31174056  0.23488726  0.67580481     0.07900
C648        C  0.29617311  0.26691116  0.67655907    -0.14200
H649        H  0.29280366  0.31615028  0.69056762     0.11900
H650        H  0.36798569  0.24902818  0.71097893     0.11900
H651        H  0.34967904  0.20404298  0.68817782     0.11900
H652        H  0.27600686  0.27222732  0.66706467     0.11900
C653        C  0.15151785  0.46996539  0.30174308    -0.14200
C654        C  0.15516082  0.47899088  0.32143967     0.07900
C655        C  0.15012735  0.01328618  0.32693218    -0.14200
C656        C  0.14538180  0.03851727  0.31275143    -0.14200
C657        C  0.14749267  0.03072425  0.29254591     0.07900
C658        C  0.14682710  0.49532272  0.28759212    -0.14200
H659        H  0.15306706  0.44333308  0.29716656     0.11900
H660        H  0.15070864  0.02087109  0.34218525     0.11900
H661        H  0.14015217  0.06414108  0.31794114     0.11900
H662        H  0.14245436  0.48630776  0.27296283     0.11900
C663        C  0.18296485  0.26002440  0.30451496    -0.14200
C664        C  0.16399442  0.26345984  0.32138684     0.07900
C665        C  0.13937272  0.23971573  0.32485669    -0.14200
C666        C  0.13279382  0.21391580  0.31108733    -0.14200
C667        C  0.15126648  0.21116009  0.29395045     0.07900
C668        C  0.17691065  0.23381529  0.29103595    -0.14200
H669        H  0.20276816  0.27738272  0.30187979     0.11900
H670        H  0.12494694  0.24155291  0.33800138     0.11900
H671        H  0.11316610  0.19630403  0.31366673     0.11900
H672        H  0.19180092  0.23155721  0.27810609     0.11900
C673        C  0.35013557  0.00493497  0.29964139    -0.14200
C674        C  0.33434250  0.03693187  0.29854018     0.07900
C675        C  0.30764330  0.04272692  0.31066583    -0.14200
C676        C  0.29722537  0.51746464  0.32368953    -0.14200
C677        C  0.31265981  0.48536768  0.32455831     0.07900
C678        C  0.33904613  0.47917863  0.31228542    -0.14200
H679        H  0.37086940  0.99977482  0.29053947     0.11900
H680        H  0.29462249  0.06678772  0.30993343     0.11900
H681        H  0.27656842  0.52278147  0.33283318     0.11900
H682        H  0.35136234  0.45467803  0.31272243     0.11900
C683        C  0.33773691  0.27219084  0.31173485    -0.14200
C684        C  0.31354871  0.26498748  0.32536367     0.07900
C685        C  0.29849035  0.23274394  0.32489850    -0.14200
C686        C  0.30723123  0.20821903  0.31094556    -0.14200
C687        C  0.33210398  0.21482630  0.29762555     0.07900
C688        C  0.34731078  0.24710170  0.29815805    -0.14200
H689        H  0.34944771  0.29701379  0.31177433     0.11900
H690        H  0.27930554  0.22679515  0.33501638     0.11900
H691        H  0.29462428  0.18390733  0.31060163     0.11900
H692        H  0.36656538  0.25285153  0.28805647     0.11900
C693        C  0.08132023  0.24499061  0.56001402    -0.14200
C694        C  0.06491807  0.22063412  0.54856626     0.07900
C695        C  0.07503671  0.18632655  0.54868631    -0.14200
C696        C  0.10252846  0.17686937  0.55891081    -0.14200
C697        C  0.12022363  0.20144093  0.56946826     0.07900
C698        C  0.10873787  0.23535393  0.57059484    -0.14200
H699        H  0.07373475  0.27161372  0.56004374     0.11900
H700        H  0.06263552  0.16725561  0.53993860     0.11900
H701        H  0.11059868  0.15043657  0.55798241     0.11900
H702        H  0.12192075  0.25469629  0.57867743     0.11900
C703        C  0.38096422  0.24434140  0.55812988    -0.14200
C704        C  0.39839000  0.21895484  0.54801953     0.07900
C705        C  0.38878993  0.18458487  0.54919370    -0.14200
C706        C  0.36090448  0.17594706  0.55925141    -0.14200
C707        C  0.34237430  0.20141230  0.56854702     0.07900
C708        C  0.35318531  0.23554823  0.56854376    -0.14200
H709        H  0.38806055  0.27104215  0.55719885     0.11900
H710        H  0.40189242  0.16476926  0.54137121     0.11900
H711        H  0.35322186  0.14941426  0.55923296     0.11900
H712        H  0.33922156  0.25557780  0.57557142     0.11900
C713        C  0.07875787  0.25445613  0.43719046    -0.14200
C714        C  0.06589458  0.27462136  0.45239105     0.07900
C715        C  0.08034485  0.30597268  0.45714640    -0.14200
C716        C  0.10801725  0.31648714  0.44746950    -0.14200
C717        C  0.12192967  0.29587525  0.43276834     0.07900
C718        C  0.10663460  0.26509507  0.42736645    -0.14200
H719        H  0.06793712  0.23001282  0.43347402     0.11900
H720        H  0.07079539  0.32172646  0.46889470     0.11900
H721        H  0.11901027  0.34045950  0.45192452     0.11900
H722        H  0.11676762  0.24881023  0.41606233     0.11900
C723        C  0.38327614  0.25264734  0.43792660    -0.14200
C724        C  0.39705457  0.27292520  0.45271847     0.07900
C725        C  0.38298640  0.30444261  0.45769768    -0.14200
C726        C  0.35504354  0.31528099  0.44844195    -0.14200
C727        C  0.34052614  0.29479545  0.43398620     0.07900
C728        C  0.35515373  0.26359276  0.42854195    -0.14200
H729        H  0.39364280  0.22795551  0.43417455     0.11900
H730        H  0.39313342  0.32014171  0.46925462     0.11900
H731        H  0.34445399  0.33949127  0.45292463     0.11900
H732        H  0.34440486  0.24730480  0.41747862     0.11900
C733        C  0.08629649  0.04989397  0.53945753    -0.14200
C734        C  0.06801340  0.02239593  0.54635743     0.07900
C735        C  0.07725448  0.00581119  0.56370691    -0.14200
C736        C  0.10506073  0.01635187  0.57373878    -0.14200
C737        C  0.12373447  0.04355973  0.56647214     0.07900
C738        C  0.11371285  0.06034687  0.54935375    -0.14200
H739        H  0.07963503  0.06284487  0.52606255     0.11900
H740        H  0.06342743  0.98436159  0.56916758     0.11900
H741        H  0.11211654  0.00310281  0.58694385     0.11900
H742        H  0.12737482  0.08143772  0.54331632     0.11900
C743        C  0.38719957  0.00714638  0.56363114    -0.14200
C744        C  0.39910412  0.02725667  0.54822488     0.07900
C745        C  0.38382588  0.05812637  0.54354930    -0.14200
C746        C  0.35611550  0.06805270  0.55338823    -0.14200
C747        C  0.34300765  0.04738344  0.56818522     0.07900
C748        C  0.35927218  0.01725625  0.57365898    -0.14200
H749        H  0.39869874  0.98305148  0.56727716     0.11900
H750        H  0.39260668  0.07379532  0.53163415     0.11900
H751        H  0.34426167  0.09141313  0.54881404     0.11900
H752        H  0.34975937  0.00095721  0.58506251     0.11900
C753        C  0.07167112  0.43578894  0.44813159    -0.14200
C754        C  0.06346203  0.47051395  0.45022772     0.07900
C755        C  0.08211831  0.49564637  0.44091757    -0.14200
C756        C  0.10960276  0.48615041  0.43034013    -0.14200
C757        C  0.11897616  0.45153394  0.42940130     0.07900
C758        C  0.09933838  0.42640413  0.43794916    -0.14200
H759        H  0.05769778  0.41615750  0.45539310     0.11900
H760        H  0.07625084  0.52260657  0.44264119     0.11900
H761        H  0.12455115  0.50592264  0.42399525     0.11900
H762        H  0.10603245  0.39952146  0.43733838     0.11900
C763        C  0.37676045  0.49858731  0.44423663    -0.14200
C764        C  0.39671940  0.47315190  0.45218175     0.07900
C765        C  0.38936501  0.43841986  0.44922058    -0.14200
C766        C  0.36140363  0.42918864  0.43936881    -0.14200
C767        C  0.34070587  0.45455413  0.43204723     0.07900
C768        C  0.34901031  0.48930432  0.43398889    -0.14200
H769        H  0.38198564  0.02551029  0.44669769     0.11900
H770        H  0.40439585  0.41856024  0.45544862     0.11900
H771        H  0.35544684  0.40220257  0.43795434     0.11900
H772        H  0.33315303  0.00918413  0.42861146     0.11900
N773        N  0.43285485  0.99939919  0.50033846    -0.37500
N774        N  0.98074806  0.98518324  0.47040806    -0.58100
N775        N  0.03031784  0.49589469  0.49947206    -0.37500
N776        N  0.98256621  0.50707405  0.53014410    -0.58100
C777        C  0.41396444  0.98674394  0.48593975     0.26100
C778        C  0.41500582  0.50060247  0.51684902     0.26100
C779        C  0.04814326  0.98326593  0.48451731     0.26100
C780        C  0.04896051  0.49566553  0.51564762     0.26100
C781        C  0.45441216  0.98402835  0.45897047     0.34700
C782        C  0.00636762  0.98319703  0.45836262     0.34700
C783        C  0.45717260  0.51921178  0.54037530     0.34700
C784        C  0.00908461  0.51692532  0.54004652     0.34700
C785        C  0.38362592  0.98011153  0.49342757    -0.22800
C786        C  0.38424970  0.48903372  0.51286692    -0.22800
C787        C  0.07857355  0.97511700  0.49132889    -0.22800
C788        C  0.07905316  0.48289935  0.51091564    -0.22800
C789        C  0.46329726  0.98120533  0.43948781    -0.23800
C790        C  0.99627640  0.98071274  0.43910072    -0.23800
C791        C  0.46752365  0.53600362  0.55711416    -0.23800
C792        C  0.00047040  0.53456523  0.55690389    -0.23800
C793        C  0.42260062  0.98251782  0.46600967    -0.19200
C794        C  0.42477425  0.51454500  0.53502769    -0.19200
C795        C  0.04093032  0.51009659  0.53406393    -0.19200
C796        C  0.03850008  0.98037937  0.46468035    -0.19200
H797        H  0.36294670  0.97031920  0.48565554     0.13700
H798        H  0.36421544  0.48747798  0.52289895     0.13700
H799        H  0.09866601  0.96517995  0.48301673     0.13700
H800        H  0.09951094  0.48019477  0.52051991     0.13700
H801        H  0.44766349  0.97892410  0.42692562     0.12000
H802        H  0.01109096  0.97791193  0.42618582     0.12000
H803        H  0.45288369  0.54819354  0.56823711     0.12000
H804        H  0.01625308  0.54552228  0.56781761     0.12000
H805        H  0.45538689  0.01055325  0.49854651     0.25300
H806        H  0.00816687  0.50816496  0.49823877     0.25300
N807        N  0.03045826  0.74725064  0.49985612    -0.37500
N808        N  0.48177240  0.73373197  0.52916500    -0.58100
N809        N  0.43312167  0.74483704  0.49949669    -0.37500
N810        N  0.48172364  0.75525261  0.46940026    -0.58100
C811        C  0.04907415  0.73540904  0.51461757     0.26100
C812        C  0.04895861  0.74845519  0.48358901     0.26100
C813        C  0.41490520  0.73164438  0.51403001     0.26100
C814        C  0.41489783  0.74518264  0.48314810     0.26100
C815        C  0.00762354  0.73274352  0.54101465     0.34700
C816        C  0.45567553  0.73153447  0.54078122     0.34700
C817        C  0.00757735  0.76612482  0.45923453     0.34700
C818        C  0.45563926  0.76547116  0.45922312     0.34700
C819        C  0.07984814  0.72945133  0.50759277    -0.22800
C820        C  0.07976713  0.73772349  0.48810269    -0.22800
C821        C  0.38472330  0.72366293  0.50674511    -0.22800
C822        C  0.38470607  0.73233124  0.48732671    -0.22800
C823        C  0.99791935  0.72978028  0.56032930    -0.23800
C824        C  0.46495190  0.72905726  0.56018186    -0.23800
C825        C  0.99790565  0.78211937  0.44215008    -0.23800
C826        C  0.46492999  0.78176564  0.44216460    -0.23800
C827        C  0.03971991  0.73115602  0.53445590    -0.19200
C828        C  0.03977325  0.76176513  0.46516880    -0.19200
C829        C  0.42358170  0.75988414  0.46505365    -0.19200
C830        C  0.42386191  0.72853623  0.53395033    -0.19200
H831        H  0.10052242  0.72060623  0.51569520     0.13700
H832        H  0.10025026  0.73639565  0.47839425     0.13700
H833        H  0.36443108  0.71336888  0.51464564     0.13700
H834        H  0.36453429  0.72995768  0.47746982     0.13700
H835        H  0.01300392  0.72752443  0.57312977     0.12000
H836        H  0.44962007  0.72609747  0.57284084     0.12000
H837        H  0.01301248  0.79327121  0.43098007     0.12000
H838        H  0.44956723  0.79249510  0.43099293     0.12000
H839        H  0.00772669  0.75776004  0.50122777     0.25300
H840        H  0.45500585  0.75716595  0.50115916     0.25300
N841        N  0.26926217  0.81089344  0.40717964    -0.07000
N842        N  0.29499003  0.79144882  0.40977335    -0.59100
N843        N  0.19465793  0.83556785  0.41943290    -0.06700
N844        N  0.16945514  0.83385820  0.43094833    -0.61200
N845        N  0.19402946  0.81108614  0.40617262    -0.06300
N846        N  0.16801596  0.79190488  0.40852913    -0.59100
N847        N  0.26849156  0.83570557  0.42024433    -0.06000
N848        N  0.29344171  0.83382354  0.43196362    -0.61600
C849        C  0.30979604  0.80613027  0.42536277     0.95200
C850        C  0.15291542  0.80663349  0.42410466     0.95000
N851        N  0.19329826  0.93818462  0.40520525    -0.07200
N852        N  0.16656086  0.95648891  0.40670491    -0.59700
N853        N  0.26781916  0.91505569  0.41967780    -0.05300
N854        N  0.29314679  0.91685980  0.43107844    -0.61000
N855        N  0.26831533  0.93958367  0.40653818    -0.07200
N856        N  0.29412664  0.95894826  0.40888261    -0.60000
N857        N  0.19369698  0.91395592  0.41851858    -0.04900
N858        N  0.16734683  0.91477071  0.42910255    -0.61000
Mn859      Mn  0.23128692  0.87518794  0.42002547     1.18400
C860        C  0.15065752  0.94137136  0.42170583     0.97300
C861        C  0.30926516  0.94433281  0.42429826     0.97900
N862        N  0.19816399  0.80915129  0.35968015    -0.07200
N863        N  0.18041791  0.78281168  0.35411148    -0.63500
N864        N  0.27253165  0.83279292  0.34764754    -0.06000
N865        N  0.29231289  0.82265111  0.33363035    -0.64200
N866        N  0.27055754  0.80893202  0.36122405    -0.06700
N867        N  0.28887993  0.78247915  0.35663230    -0.63800
N868        N  0.20001342  0.83207226  0.34559273    -0.05600
N869        N  0.18374445  0.82129120  0.33020782    -0.64500
Mn870      Mn  0.23280571  0.80904783  0.38373456     1.10700
C871        C  0.17131098  0.79068132  0.33571290     0.98500
C872        C  0.30261000  0.79128359  0.33946545     0.98600
N873        N  0.26965376  0.94085678  0.36039472    -0.06800
N874        N  0.28729009  0.96766169  0.35562578    -0.62100
N875        N  0.19866319  0.91473853  0.34529452    -0.06100
N876        N  0.18004259  0.92320643  0.33045351    -0.58900
N877        N  0.19711165  0.93855331  0.35900206    -0.07400
N878        N  0.17745404  0.96339024  0.35371169    -0.61700
N879        N  0.27174045  0.91681716  0.34681057    -0.06400
N880        N  0.29099144  0.92723592  0.33257670    -0.58900
Mn881      Mn  0.23201264  0.94034483  0.38299394     1.20200
Mn882      Mn  0.23596680  0.87410145  0.34594999     1.10100
Cl883      Cl  0.23308422  0.87465921  0.38303667    -0.86800
C884        C  0.30090797  0.95891580  0.33836794     0.95500
C885        C  0.16673574  0.95361492  0.33587055     0.95300
N886        N  0.26906945  0.68856704  0.59382856    -0.07000
N887        N  0.29535569  0.70730385  0.59164267    -0.59100
N888        N  0.19437044  0.66344954  0.58136174    -0.06700
N889        N  0.16860424  0.66458238  0.57030657    -0.61200
N890        N  0.19371479  0.68795427  0.59463191    -0.06300
N891        N  0.16727138  0.70663301  0.59269657    -0.59100
N892        N  0.26842172  0.66381712  0.58072232    -0.06000
N893        N  0.29399093  0.66488822  0.56947888    -0.61600
C894        C  0.31057724  0.69207734  0.57632419     0.95200
C895        C  0.15186200  0.69154105  0.57741800     0.95000
N896        N  0.19434523  0.56039599  0.59430803    -0.07200
N897        N  0.16847575  0.54099449  0.59174701    -0.59700
N898        N  0.26886521  0.58486627  0.58084108    -0.05300
N899        N  0.29439480  0.58380155  0.56958912    -0.61000
N900        N  0.26997778  0.56054914  0.59408429    -0.07200
N901        N  0.29668229  0.54229747  0.59205217    -0.60000
N902        N  0.19513352  0.58469135  0.58106850    -0.04900
N903        N  0.17032500  0.58253434  0.56931331    -0.61000
Mn904      Mn  0.23171049  0.62422483  0.58046523     1.18400
C905        C  0.15377604  0.55528078  0.57598181     0.97300
C906        C  0.31160835  0.55724646  0.57660618     0.97900
N907        N  0.19685014  0.68963081  0.64108297    -0.07200
N908        N  0.17902183  0.71583295  0.64684334    -0.63500
N909        N  0.27078555  0.66668228  0.65358956    -0.06000
N910        N  0.29001077  0.67705648  0.66783069    -0.64200
N911        N  0.26929260  0.69036376  0.63989076    -0.06700
N912        N  0.28738958  0.71687356  0.64457605    -0.63800
N913        N  0.19828225  0.66626288  0.65493677    -0.05600
N914        N  0.18171742  0.67651744  0.67034937    -0.64500
Mn915      Mn  0.23208657  0.69016196  0.61714165     1.10700
C916        C  0.16952648  0.70736760  0.66510590     0.98500
C917        C  0.30054674  0.70831514  0.66192577     0.98600
N918        N  0.26926714  0.55888789  0.64025922    -0.06800
N919        N  0.28714659  0.53239356  0.64529440    -0.62100
N920        N  0.19754529  0.58394496  0.65433206    -0.06100
N921        N  0.17788810  0.57535574  0.66864344    -0.58900
N922        N  0.19676660  0.56041294  0.64044584    -0.07400
N923        N  0.17665736  0.53567235  0.64505003    -0.61700
N924        N  0.27057679  0.58298611  0.65383259    -0.06400
N925        N  0.28950026  0.57303805  0.66828461    -0.58900
Mn926      Mn  0.23254697  0.55893419  0.61710234     1.20200
Mn927      Mn  0.23449022  0.62489677  0.65455817     1.10100
Cl928      Cl  0.23274717  0.62456196  0.61744810    -0.86800
C929        C  0.30008045  0.54155088  0.66266457     0.95500
C930        C  0.16484068  0.54518593  0.66266729     0.95300
N931        N  0.19188417  0.50287320  0.00017387    -0.37500
N932        N  0.23961421  0.98727873  0.02960792    -0.58100
N933        N  0.28933666  0.50009606  0.00065188    -0.37500
N934        N  0.24166190  0.51294323  0.97051608    -0.58100
C935        C  0.17310976  0.98874687  0.01416322     0.26100
C936        C  0.17438521  0.50390797  0.98353613     0.26100
C937        C  0.30738319  0.98744075  0.01541791     0.26100
C938        C  0.30822662  0.50154055  0.98454910     0.26100
C939        C  0.21328969  0.98512995  0.04106504     0.34700
C940        C  0.26529244  0.98473375  0.04153706     0.34700
C941        C  0.21616300  0.52545330  0.96068476     0.34700
C942        C  0.26799644  0.52363292  0.96078298     0.34700
C943        C  0.14329920  0.98098989  0.00629136    -0.22800
C944        C  0.14408435  0.49065578  0.98701726    -0.22800
C945        C  0.33819428  0.98099840  0.00855119    -0.22800
C946        C  0.33868165  0.48982088  0.98914196    -0.22800
C947        C  0.22223181  0.98092614  0.06041664    -0.23800
C948        C  0.25521580  0.98067156  0.06071894    -0.23800
C949        C  0.22624900  0.54349303  0.94437707    -0.23800
C950        C  0.25919138  0.54229607  0.94442227    -0.23800
C951        C  0.18145343  0.98402495  0.03405824    -0.19200
C952        C  0.18393284  0.51934832  0.96579135    -0.19200
C953        C  0.29983672  0.51635614  0.96637223    -0.19200
C954        C  0.29753865  0.98308592  0.03516141    -0.19200
H955        H  0.12288686  0.96982886  0.01368849     0.13700
H956        H  0.12441458  0.48848381  0.97677747     0.13700
H957        H  0.35857544  0.97158867  0.01671908     0.13700
H958        H  0.35938265  0.48852053  0.97960439     0.13700
H959        H  0.20664080  0.97760560  0.07292817     0.12000
H960        H  0.27005519  0.97710221  0.07352670     0.12000
H961        H  0.21143167  0.55614922  0.93359318     0.12000
H962        H  0.27485017  0.55399506  0.93372606     0.12000
H963        H  0.21368851  0.51509005  0.00237274     0.25300
H964        H  0.26678318  0.51104157  0.00205986     0.25300
N965        N  0.19151869  0.75004822  0.99914555    -0.37500
N966        N  0.24057249  0.73960039  0.97014407    -0.58100
N967        N  0.28811625  0.75179731  0.00015686    -0.37500
N968        N  0.23897539  0.76191720  0.02961387    -0.58100
C969        C  0.17394296  0.73617908  0.98447368     0.26100
C970        C  0.17311528  0.74990245  0.01542866     0.26100
C971        C  0.30633766  0.73769412  0.98584549     0.26100
C972        C  0.30524732  0.75015268  0.01691964     0.26100
C973        C  0.21495303  0.73917569  0.95812250     0.34700
C974        C  0.26685943  0.74075326  0.95868780     0.34700
C975        C  0.21269364  0.77442179  0.03871038     0.34700
C976        C  0.26457177  0.77429488  0.03942521     0.34700
C977        C  0.14401246  0.72693598  0.99162082    -0.22800
C978        C  0.14345525  0.73574162  0.01110462    -0.22800
C979        C  0.33538246  0.72695675  0.99367415    -0.22800
C980        C  0.33468095  0.73487768  0.01327161    -0.22800
C981        C  0.22494696  0.74021451  0.93880297    -0.23800
C982        C  0.25796703  0.74128337  0.93916032    -0.23800
C983        C  0.22156599  0.79452311  0.05459765    -0.23800
C984        C  0.25460868  0.79442785  0.05505556    -0.23800
C985        C  0.18310124  0.73442401  0.96451150    -0.19200
C986        C  0.18098221  0.76609386  0.03334142    -0.19200
C987        C  0.29658691  0.76606792  0.03474186    -0.19200
C988        C  0.29837809  0.73652991  0.96571255    -0.19200
H989        H  0.12414855  0.71608042  0.98352767     0.13700
H990        H  0.12313390  0.73301115  0.02082517     0.13700
H991        H  0.35543027  0.71541311  0.98602421     0.13700
H992        H  0.35397464  0.73070844  0.02357078     0.13700
H993        H  0.21007441  0.73929544  0.92585130     0.12000
H994        H  0.27362627  0.74120008  0.92652916     0.12000
H995        H  0.20589692  0.80765757  0.06481491     0.12000
H996        H  0.26954168  0.80747965  0.06567375     0.12000
H997        H  0.21297852  0.76340158  0.99760743     0.25300
H998        H  0.26728503  0.76603321  0.99811188     0.25300
N999        N  0.45210530  0.69086440  0.90639605    -0.07000
N1000       N  0.42581446  0.70963499  0.90840529    -0.59100
N1001       N  0.52741291  0.66799564  0.91942167    -0.06700
N1002       N  0.05365510  0.66956590  0.93006726    -0.61200
N1003       N  0.52709622  0.69255570  0.90631048    -0.06300
N1004       N  0.05322104  0.71174419  0.90795181    -0.59100
N1005       N  0.45289662  0.66653555  0.91962756    -0.06000
N1006       N  0.42711976  0.66779514  0.93074870    -0.61600
C1007       C  0.41051018  0.69479586  0.92367045     0.95200
C1008       C  0.06950254  0.69696226  0.92290037     0.95000
N1009       N  0.52940090  0.56419982  0.90682929    -0.07200
N1010       N  0.05570518  0.54550080  0.90924841    -0.59700
N1011       N  0.45484576  0.58771178  0.91989241    -0.05300
N1012       N  0.42985028  0.58605354  0.93152069    -0.61000
N1013       N  0.45408073  0.56309142  0.90669122    -0.07200
N1014       N  0.42806620  0.54396066  0.90918781    -0.60000
N1015       N  0.52829733  0.58893079  0.91993178    -0.04900
N1016       N  0.05342818  0.58774325  0.93148103    -0.61000
Mn1017     Mn  0.49089020  0.62784278  0.92028025     1.18400
C1018       C  0.07041134  0.56067400  0.92475320     0.97300
C1019       C  0.41324042  0.55880959  0.92482665     0.97900
N1020       N  0.02574129  0.69281523  0.86059130    -0.07200
N1021       N  0.04507840  0.71841892  0.85624631    -0.63500
N1022       N  0.45348915  0.66723585  0.84646261    -0.06000
N1023       N  0.43432283  0.67606303  0.83193912    -0.64200
N1024       N  0.45271847  0.69096582  0.86027184    -0.06700
N1025       N  0.43274896  0.71587923  0.85544249    -0.63800
N1026       N  0.02627458  0.66931170  0.84670623    -0.05600
N1027       N  0.04563800  0.67904784  0.83248909    -0.64500
Mn1028     Mn  0.48931111  0.69286417  0.88355647     1.10700
C1029       C  0.05760591  0.70954966  0.83873491     0.98500
C1030       C  0.42124699  0.70637980  0.83773702     0.98600
N1031       N  0.45615075  0.56061960  0.86015873    -0.06800
N1032       N  0.43796530  0.53428894  0.85509241    -0.62100
N1033       N  0.02888133  0.58666026  0.84707760    -0.06100
N1034       N  0.05008971  0.57882437  0.83339824    -0.58900
N1035       N  0.02917853  0.56315382  0.86087678    -0.07400
N1036       N  0.05081667  0.53934363  0.85693758    -0.61700
N1037       N  0.45606184  0.58403410  0.84629061    -0.06400
N1038       N  0.43808368  0.57367084  0.83150466    -0.58900
Mn1039     Mn  0.49208140  0.56155421  0.88378085     1.20200
Mn1040     Mn  0.49112229  0.62678756  0.84617314     1.10100
Cl1041     Cl  0.49073850  0.62721262  0.88332869    -0.86800
C1042       C  0.42655989  0.54277921  0.83724219     0.95500
C1043       C  0.06388735  0.54934926  0.83977595     0.95300
N1044       N  0.13494332  0.87787505  0.72491481    -0.37500
N1045       N  0.11845259  0.82598660  0.75367218    -0.58100
N1046       N  0.10767926  0.87921378  0.78313504    -0.37500
N1047       N  0.12361191  0.93145465  0.75435071    -0.58100
C1048       C  0.14741732  0.84943895  0.71625016     0.26100
C1049       C  0.14803640  0.90547110  0.71591553     0.26100
C1050       C  0.09244976  0.85250743  0.79164711     0.26100
C1051       C  0.09776086  0.90822450  0.79236801     0.26100
C1052       C  0.12611594  0.80466245  0.73870693     0.34700
C1053       C  0.10860412  0.80570885  0.76850120     0.34700
C1054       C  0.14043045  0.94923427  0.74090924     0.34700
C1055       C  0.12675403  0.94894364  0.77135382     0.34700
C1056       C  0.16904676  0.85904633  0.70190573    -0.22800
C1057       C  0.17003799  0.89429091  0.70203629    -0.22800
C1058       C  0.07286122  0.86462842  0.80656959    -0.22800
C1059       C  0.07598485  0.89983387  0.80691349    -0.22800
C1060       C  0.12064763  0.77083391  0.74399878    -0.23800
C1061       C  0.11041065  0.77143741  0.76294927    -0.23800
C1062       C  0.15613479  0.97655170  0.74979011    -0.23800
C1063       C  0.14658317  0.97703912  0.76895970    -0.23800
C1064       C  0.14008055  0.81490193  0.72081777    -0.19200
C1065       C  0.14214294  0.94041419  0.72084625    -0.19200
C1066       C  0.10930345  0.94167709  0.78844578    -0.19200
C1067       C  0.09598867  0.81742937  0.78655203    -0.19200
H1068       H  0.18356442  0.84234646  0.69279316     0.13700
H1069       H  0.18616571  0.90981752  0.69338376     0.13700
H1070       H  0.05753169  0.84967585  0.81605589     0.13700
H1071       H  0.06358130  0.91714645  0.81677126     0.13700
H1072       H  0.12407706  0.74781323  0.73533879     0.12000
H1073       H  0.10455681  0.74895324  0.77146453     0.12000
H1074       H  0.17316033  0.99404826  0.74325160     0.12000
H1075       H  0.15367470  0.99560440  0.77996164     0.12000
H1076       H  0.11641580  0.87860420  0.73511688     0.25300
H1077       H  0.12601085  0.87755588  0.77283165     0.25300
N1078       N  0.36511156  0.92749883  0.74994614    -0.37500
N1079       N  0.37880257  0.87471145  0.77880933    -0.58100
N1080       N  0.36322780  0.82249842  0.74996924    -0.37500
N1081       N  0.34643934  0.87533091  0.72198153    -0.58100
C1082       C  0.36598897  0.94584536  0.76678482     0.26100
C1083       C  0.34835869  0.94626667  0.73680786     0.26100
C1084       C  0.36327440  0.80423658  0.76677517     0.26100
C1085       C  0.34580362  0.80453671  0.73672661     0.26100
C1086       C  0.39237332  0.90232476  0.78753307     0.34700
C1087       C  0.39117989  0.84663631  0.78763228     0.34700
C1088       C  0.34784811  0.90314279  0.71022626     0.34700
C1089       C  0.34701002  0.84739348  0.71016499     0.34700
C1090       C  0.34936109  0.97641110  0.76441339    -0.22800
C1091       C  0.33809146  0.97661465  0.74550814    -0.22800
C1092       C  0.34537148  0.77456548  0.76428175    -0.22800
C1093       C  0.33421493  0.77481791  0.74533881    -0.22800
C1094       C  0.41369201  0.89175604  0.80184381    -0.23800
C1095       C  0.41291395  0.85644114  0.80192007    -0.23800
C1096       C  0.34983646  0.89285216  0.69083647    -0.23800
C1097       C  0.34938179  0.85749861  0.69079603    -0.23800
C1098       C  0.38373893  0.93676610  0.78359955    -0.19200
C1099       C  0.34410321  0.93741504  0.71688083    -0.19200
C1100       C  0.34226290  0.81331118  0.71674885    -0.19200
C1101       C  0.38119239  0.81257301  0.78370837    -0.19200
H1102       H  0.34595737  0.99661960  0.77514349     0.13700
H1103       H  0.32420383  0.99699665  0.73890726     0.13700
H1104       H  0.34101944  0.75465873  0.77495939     0.13700
H1105       H  0.31952669  0.75513352  0.73863715     0.13700
H1106       H  0.42814650  0.90775200  0.81133821     0.12000
H1107       H  0.42666671  0.83995696  0.81147278     0.12000
H1108       H  0.35100393  0.90910510  0.67805550     0.12000
H1109       H  0.35017693  0.84116863  0.67795655     0.12000
H1110       H  0.37842095  0.90553342  0.74694602     0.25300
H1111       H  0.37749481  0.84377597  0.74700971     0.25300
N1112       N  0.13965360  0.62194579  0.27368934    -0.37500
N1113       N  0.12778455  0.56973479  0.24407834    -0.58100
N1114       N  0.11173614  0.62371658  0.21572043    -0.37500
N1115       N  0.12297169  0.67552555  0.24552613    -0.58100
C1116       C  0.15213491  0.59403383  0.28277015     0.26100
C1117       C  0.15059028  0.65008108  0.28329353     0.26100
C1118       C  0.10098632  0.59498474  0.20662393     0.26100
C1119       C  0.09645818  0.65082035  0.20760717     0.26100
C1120       C  0.14524815  0.55147761  0.25701022     0.34700
C1121       C  0.13124992  0.55377625  0.22664289     0.34700
C1122       C  0.13149351  0.69607006  0.26065529     0.34700
C1123       C  0.11495092  0.69657043  0.23059272     0.34700
C1124       C  0.17231836  0.60483325  0.29769254    -0.22800
C1125       C  0.17067927  0.64002761  0.29835300    -0.22800
C1126       C  0.07846222  0.60388539  0.19261957    -0.22800
C1127       C  0.07580157  0.63916660  0.19313267    -0.22800
C1128       C  0.16168290  0.52540490  0.24737570    -0.23800
C1129       C  0.15194966  0.52616749  0.22822621    -0.23800
C1130       C  0.12876778  0.73025959  0.25529373    -0.23800
C1131       C  0.11921433  0.73056207  0.23618384    -0.23800
C1132       C  0.14709179  0.55918282  0.27722420    -0.19200
C1133       C  0.14345138  0.68475829  0.27891086    -0.19200
C1134       C  0.10117749  0.68581042  0.21262333    -0.19200
C1135       C  0.11277345  0.56142181  0.21003883    -0.19200
H1136       H  0.18759145  0.58912055  0.30680459     0.13700
H1137       H  0.18378418  0.65642777  0.30835587     0.13700
H1138       H  0.06541671  0.58688086  0.18293534     0.13700
H1139       H  0.06020669  0.65446632  0.18398839     0.13700
H1140       H  0.17949259  0.50814689  0.25334068     0.12000
H1141       H  0.15943106  0.50873984  0.21670940     0.12000
H1142       H  0.13367186  0.75286548  0.26403584     0.12000
H1143       H  0.11537731  0.75347920  0.22761321     0.12000
H1144       H  0.12228421  0.62170957  0.26279910     0.25300
H1145       H  0.13070051  0.62484016  0.22559775     0.25300
N1146       N  0.36542823  0.57357452  0.25106054    -0.37500
N1147       N  0.34637803  0.62573734  0.27852340    -0.58100
N1148       N  0.36175516  0.67838022  0.24986796    -0.37500
N1149       N  0.37761431  0.62620758  0.22144184    -0.58100
C1150       C  0.34898709  0.55478343  0.26432865     0.26100
C1151       C  0.36648418  0.55506344  0.23433354     0.26100
C1152       C  0.34434919  0.69613240  0.26320437     0.26100
C1153       C  0.36082007  0.69624647  0.23295195     0.26100
C1154       C  0.34838719  0.59828127  0.29052506     0.34700
C1155       C  0.34780417  0.65397728  0.29003507     0.34700
C1156       C  0.39165719  0.59859321  0.21298156     0.34700
C1157       C  0.38924886  0.65421420  0.21218724     0.34700
C1158       C  0.33908700  0.52420647  0.25578939    -0.22800
C1159       C  0.35037245  0.52426847  0.23688957    -0.22800
C1160       C  0.33158978  0.72528358  0.25453893    -0.22800
C1161       C  0.34211669  0.72540800  0.23542755    -0.22800
C1162       C  0.35155348  0.60906937  0.30974376    -0.23800
C1163       C  0.35142723  0.64440586  0.30942926    -0.23800
C1164       C  0.41239622  0.60904429  0.19831859    -0.23800
C1165       C  0.41092659  0.64432996  0.19784020    -0.23800
C1166       C  0.34470479  0.56385234  0.28422168    -0.19200
C1167       C  0.38388931  0.56415392  0.21741772    -0.19200
C1168       C  0.37892964  0.68824084  0.21603828    -0.19200
C1169       C  0.34213788  0.68779138  0.28329338    -0.19200
H1170       H  0.32542599  0.00377107  0.26247750     0.13700
H1171       H  0.34725528  0.00385654  0.22626397     0.13700
H1172       H  0.31667163  0.74472706  0.26133957     0.13700
H1173       H  0.33698229  0.74494447  0.22465388     0.13700
H1174       H  0.35347768  0.59316550  0.32263102     0.12000
H1175       H  0.35313957  0.66108936  0.32208376     0.12000
H1176       H  0.42693805  0.59296046  0.18887753     0.12000
H1177       H  0.42427019  0.66069023  0.18801890     0.12000
H1178       H  0.37856455  0.59592138  0.25386289     0.25300
H1179       H  0.37686567  0.65764823  0.25288196     0.25300
N1180       N  0.45066071  0.81323171  0.09421092    -0.07000
N1181       N  0.42422038  0.79468699  0.09199253    -0.59100
N1182       N  0.52492038  0.83608766  0.07971538    -0.06700
N1183       N  0.04911793  0.83362354  0.06748287    -0.61200
N1184       N  0.52596302  0.81151477  0.09279614    -0.06300
N1185       N  0.05142976  0.79171701  0.08969758    -0.59100
N1186       N  0.45158255  0.83770661  0.08106394    -0.06000
N1187       N  0.42619528  0.83657838  0.06974919    -0.61600
C1188       C  0.40925631  0.80974517  0.07658032     0.95200
C1189       C  0.06557687  0.80598049  0.07375487     0.95000
N1190       N  0.52708937  0.94003335  0.09358223    -0.07200
N1191       N  0.05285556  0.95940310  0.09114225    -0.59700
N1192       N  0.45244453  0.91627258  0.08141974    -0.05300
N1193       N  0.42671841  0.91785436  0.07039143    -0.61000
N1194       N  0.45201753  0.94048334  0.09485567    -0.07200
N1195       N  0.42567378  0.95939715  0.09309167    -0.60000
N1196       N  0.52636153  0.91548404  0.08035289    -0.04900
N1197       N  0.05150860  0.91731523  0.06874635    -0.61000
Mn1198     Mn  0.48893167  0.87640456  0.08014423     1.18400
C1199       C  0.06777520  0.94482961  0.07554867     0.97300
C1200       C  0.41017143  0.94474096  0.07769724     0.97900
N1201       N  0.02696219  0.81027326  0.13891045    -0.07200
N1202       N  0.04644415  0.78457591  0.14299479    -0.63500
N1203       N  0.45517468  0.83444571  0.15462303    -0.06000
N1204       N  0.43685301  0.82491568  0.16944378    -0.64200
N1205       N  0.45399537  0.81116927  0.14057599    -0.06700
N1206       N  0.43458521  0.78586833  0.14552491    -0.63800
N1207       N  0.02781237  0.83359119  0.15291450    -0.05600
N1208       N  0.04753755  0.82368886  0.16689013    -0.64500
Mn1209     Mn  0.48931993  0.81042802  0.11647502     1.10700
C1210       C  0.05932609  0.79319717  0.16045389     0.98500
C1211       C  0.42377305  0.79471607  0.16351329     0.98600
N1212       N  0.45562775  0.94115965  0.14115212    -0.06800
N1213       N  0.43664962  0.96676071  0.14635674    -0.62100
N1214       N  0.02922471  0.91636341  0.15315557    -0.06100
N1215       N  0.05092578  0.92435132  0.16649311    -0.58900
N1216       N  0.02869923  0.93994834  0.13940646    -0.07400
N1217       N  0.05028871  0.96389405  0.14298396    -0.61700
N1218       N  0.45636202  0.91757791  0.15491223    -0.06400
N1219       N  0.43817272  0.92712275  0.16980216    -0.58900
Mn1220     Mn  0.49072169  0.94154935  0.11713658     1.20200
Mn1221     Mn  0.49213230  0.87555362  0.15437466     1.10100
Cl1222     Cl  0.49023932  0.87596152  0.11716058    -0.86800
C1223       C  0.42566088  0.95766732  0.16419517     0.95500
C1224       C  0.06419596  0.95393875  0.15988648     0.95300
C1225       C  0.41212044  0.50852191  0.21064305    -0.14200
C1226       C  0.39380311  0.53626894  0.20377830     0.07900
C1227       C  0.38459175  0.53699978  0.18405392    -0.14200
C1228       C  0.39439203  0.01092914  0.17125991    -0.14200
C1229       C  0.41291047  0.98333356  0.17808791     0.07900
C1230       C  0.42136021  0.48210150  0.19794215    -0.14200
H1231       H  0.41947295  0.50752372  0.22581971     0.11900
H1232       H  0.37008080  0.55793336  0.17855392     0.11900
H1233       H  0.38766359  0.01238375  0.15599172     0.11900
H1234       H  0.43600949  0.46134189  0.20351118     0.11900
C1235       C  0.38271118  0.71430644  0.18226966    -0.14200
C1236       C  0.38820858  0.71669763  0.20250989     0.07900
C1237       C  0.40355573  0.74615959  0.20991391    -0.14200
C1238       C  0.41389144  0.77223077  0.19735771    -0.14200
C1239       C  0.40956104  0.76918532  0.17705343     0.07900
C1240       C  0.39361174  0.74008565  0.16965856    -0.14200
H1241       H  0.37056084  0.69212562  0.17619444     0.11900
H1242       H  0.40819379  0.74862017  0.22543845     0.11900
H1243       H  0.42632380  0.79416999  0.20349457     0.11900
H1244       H  0.38990112  0.73708821  0.15407180     0.11900
C1245       C  0.07783854  0.97653739  0.19308061    -0.14200
C1246       C  0.08089142  0.97880713  0.17269814     0.07900
C1247       C  0.09679670  0.50727036  0.16461686    -0.14200
C1248       C  0.10820013  0.53372296  0.17668387    -0.14200
C1249       C  0.10334795  0.53238344  0.19698464     0.07900
C1250       C  0.08867708  0.50320311  0.20507326    -0.14200
H1251       H  0.06557525  0.95502069  0.19971454     0.11900
H1252       H  0.09962097  0.50947131  0.14892612     0.11900
H1253       H  0.11999576  0.55565170  0.17016666     0.11900
H1254       H  0.08473755  0.50154678  0.22070132     0.11900
C1255       C  0.10214795  0.71477974  0.17981454    -0.14200
C1256       C  0.08954310  0.71267502  0.19884198     0.07900
C1257       C  0.06676837  0.73707741  0.20497482    -0.14200
C1258       C  0.05816453  0.76420944  0.19278329    -0.14200
C1259       C  0.07100175  0.76652644  0.17386962     0.07900
C1260       C  0.09257106  0.74126940  0.16731201    -0.14200
H1261       H  0.11952217  0.69604951  0.17472814     0.11900
H1262       H  0.05622815  0.73552366  0.21942629     0.11900
H1263       H  0.04076325  0.78284206  0.19795154     0.11900
H1264       H  0.10218472  0.74226075  0.15260400     0.11900
C1265       C  0.07547346  0.02677807  0.80626447    -0.14200
C1266       C  0.07982961  0.52448772  0.82655978     0.07900
C1267       C  0.09630306  0.49602704  0.83421998    -0.14200
C1268       C  0.10700107  0.96959692  0.82185965    -0.14200
C1269       C  0.10081800  0.97090408  0.80168951     0.07900
C1270       C  0.08557065  0.00010722  0.79399031    -0.14200
H1271       H  0.06273871  0.04830290  0.79994969     0.11900
H1272       H  0.10011495  0.49380118  0.84982819     0.11900
H1273       H  0.11923274  0.44765265  0.82807760     0.11900
H1274       H  0.08058597  0.00176610  0.77847960     0.11900
C1275       C  0.09333442  0.75847166  0.83034369    -0.14200
C1276       C  0.06826410  0.73626498  0.82515955     0.07900
C1277       C  0.05100150  0.74210860  0.80789875    -0.14200
C1278       C  0.05885070  0.76971142  0.79587671    -0.14200
C1279       C  0.08478335  0.79111799  0.80061612     0.07900
C1280       C  0.10183683  0.78551916  0.81799436    -0.14200
H1281       H  0.10644037  0.75465833  0.84383084     0.11900
H1282       H  0.03097115  0.72580079  0.80396171     0.11900
H1283       H  0.04537739  0.77382797  0.78255500     0.11900
H1284       H  0.12194757  0.80179500  0.82181359     0.11900
C1285       C  0.39679422  0.48821311  0.83039727    -0.14200
C1286       C  0.41381287  0.51679797  0.82344490     0.07900
C1287       C  0.42030311  0.51923248  0.80333734    -0.14200
C1288       C  0.41057507  0.99322159  0.79049769    -0.14200
C1289       C  0.39363660  0.96455729  0.79742802     0.07900
C1290       C  0.38641245  0.96255145  0.81746916    -0.14200
H1291       H  0.39155366  0.48573562  0.84584171     0.11900
H1292       H  0.43374917  0.54074053  0.79760219     0.11900
H1293       H  0.41656058  0.99526068  0.77512892     0.11900
H1294       H  0.37305737  0.94090402  0.82312069     0.11900
C1295       C  0.41423486  0.72862531  0.80368330    -0.14200
C1296       C  0.40819003  0.73191591  0.82381910     0.07900
C1297       C  0.39215881  0.76140378  0.83068351    -0.14200
C1298       C  0.38275514  0.78727512  0.81768858    -0.14200
C1299       C  0.38978822  0.78448355  0.79762638     0.07900
C1300       C  0.40540508  0.75475245  0.79077153    -0.14200
H1301       H  0.42687966  0.70642529  0.79797170     0.11900
H1302       H  0.38724342  0.76460958  0.84613982     0.11900
H1303       H  0.37041340  0.80974103  0.82331945     0.11900
H1304       H  0.41123637  0.75202736  0.77540404     0.11900
C1305       C  0.14104656  0.75596843  0.06031722    -0.14200
C1306       C  0.15404320  0.77746603  0.04588773     0.07900
C1307       C  0.13884343  0.80848390  0.04148495    -0.14200
C1308       C  0.11050688  0.81761224  0.05091465    -0.14200
C1309       C  0.09670332  0.79593535  0.06501761     0.07900
C1310       C  0.11248672  0.76521805  0.06991512    -0.14200
H1311       H  0.15239091  0.73163043  0.06361523     0.11900
H1312       H  0.14840815  0.82510618  0.03023140     0.11900
H1313       H  0.09908123  0.84152435  0.04682862     0.11900
H1314       H  0.10234006  0.74805009  0.08068420     0.11900
C1315       C  0.33881377  0.80848122  0.04219107    -0.14200
C1316       C  0.32295940  0.77830221  0.04745502     0.07900
C1317       C  0.33459292  0.75866018  0.06313436    -0.14200
C1318       C  0.36237313  0.76899808  0.07318312    -0.14200
C1319       C  0.37871397  0.79891050  0.06749846     0.07900
C1320       C  0.36630509  0.81869968  0.05208834    -0.14200
H1321       H  0.33036630  0.82362619  0.02996947     0.11900
H1322       H  0.32278755  0.73494533  0.06714071     0.11900
H1323       H  0.37147932  0.75327410  0.08496648     0.11900
H1324       H  0.37827423  0.84184741  0.04728761     0.11900
C1325       C  0.13881545  0.75060081  0.94150160    -0.14200
C1326       C  0.15805017  0.72509445  0.95004234     0.07900
C1327       C  0.15016686  0.69043674  0.94728464    -0.14200
C1328       C  0.12211080  0.68145736  0.93741333    -0.14200
C1329       C  0.10167444  0.70692979  0.92991170     0.07900
C1330       C  0.11088435  0.74154194  0.93128088    -0.14200
H1331       H  0.14451589  0.77749104  0.94365996     0.11900
H1332       H  0.16465491  0.67046740  0.95386416     0.11900
H1333       H  0.11569090  0.65457132  0.93631368     0.11900
H1334       H  0.09545889  0.76158445  0.92564254     0.11900
C1335       C  0.34292176  0.75066026  0.94245664    -0.14200
C1336       C  0.32380884  0.72605368  0.95182905     0.07900
C1337       C  0.33147744  0.69113642  0.95007465    -0.14200
C1338       C  0.35920232  0.68100118  0.94023032    -0.14200
C1339       C  0.37926137  0.70559523  0.93159870     0.07900
C1340       C  0.37038099  0.74039978  0.93213908    -0.14200
H1341       H  0.33732037  0.77774578  0.94383587     0.11900
H1342       H  0.31696212  0.67193989  0.95731977     0.11900
H1343       H  0.36546818  0.65398368  0.93983064     0.11900
H1344       H  0.38560791  0.75972509  0.92559458     0.11900
C1345       C  0.13559229  0.99953126  0.05622363    -0.14200
C1346       C  0.15536990  0.97429964  0.04772450     0.07900
C1347       C  0.14772898  0.93952861  0.05007236    -0.14200
C1348       C  0.11969020  0.93009424  0.05979935    -0.14200
C1349       C  0.09915625  0.95524811  0.06765581     0.07900
C1350       C  0.10778124  0.99001734  0.06638077    -0.14200
H1351       H  0.14104329  0.02651096  0.05431776     0.11900
H1352       H  0.16263088  0.91980823  0.04347982     0.11900
H1353       H  0.11360442  0.90310292  0.06075564     0.11900
H1354       H  0.09216606  0.00978996  0.07225657     0.11900
C1355       C  0.33887650  0.99740042  0.06074934    -0.14200
C1356       C  0.32255440  0.97279583  0.04941466     0.07900
C1357       C  0.33299091  0.93862394  0.04951431    -0.14200
C1358       C  0.36070505  0.92955719  0.05958986    -0.14200
C1359       C  0.37830145  0.95435344  0.07004078     0.07900
C1360       C  0.36653551  0.98813031  0.07120267    -0.14200
H1361       H  0.33109518  0.52395764  0.06072746     0.11900
H1362       H  0.32075203  0.91940770  0.04078238     0.11900
H1363       H  0.36904682  0.90324753  0.05860114     0.11900
H1364       H  0.37968908  0.00764606  0.07916712     0.11900
C1365       C  0.14372661  0.56323481  0.95681203    -0.14200
C1366       C  0.15817102  0.53159356  0.95270500     0.07900
C1367       C  0.14534128  0.51031192  0.93804316    -0.14200
C1368       C  0.11725093  0.52003944  0.92821684    -0.14200
C1369       C  0.10179621  0.55101883  0.93311622     0.07900
C1370       C  0.11583228  0.57285416  0.94713114    -0.14200
H1371       H  0.15332120  0.57981462  0.96814732     0.11900
H1372       H  0.15623951  0.98563045  0.93487780     0.11900
H1373       H  0.10698831  0.00284477  0.91742753     0.11900
H1374       H  0.10467583  0.59701577  0.95113633     0.11900
C1375       C  0.34218620  0.55871701  0.95887919    -0.14200
C1376       C  0.32647432  0.52831174  0.95374120     0.07900
C1377       C  0.33801730  0.50851551  0.93798314    -0.14200
C1378       C  0.36589985  0.51858098  0.92796150    -0.14200
C1379       C  0.38238314  0.54843548  0.93371057     0.07900
C1380       C  0.36974809  0.56870520  0.94898128    -0.14200
H1381       H  0.33358457  0.57420651  0.97100696     0.11900
H1382       H  0.32607552  0.48486186  0.93390700     0.11900
H1383       H  0.37500376  0.50265773  0.91617431     0.11900
H1384       H  0.38161525  0.59204247  0.95369348     0.11900
C1385       C  0.14939883  0.98508125  0.67103861    -0.14200
C1386       C  0.15232139  0.51963451  0.67657165     0.07900
C1387       C  0.14554304  0.52888128  0.69590252    -0.14200
C1388       C  0.13964469  0.50359926  0.70986105    -0.14200
C1389       C  0.14285572  0.96822688  0.70523702     0.07900
C1390       C  0.14384753  0.95988689  0.68509362    -0.14200
H1391       H  0.15240394  0.97728366  0.65592381     0.11900
H1392       H  0.14541784  0.55563236  0.70034674     0.11900
H1393       H  0.13251617  0.51252679  0.72413640     0.11900
H1394       H  0.14051716  0.93395789  0.67985775     0.11900
C1395       C  0.17689703  0.73508667  0.69778282    -0.14200
C1396       C  0.16131544  0.73411020  0.67957971     0.07900
C1397       C  0.13992102  0.76051258  0.67466907    -0.14200
C1398       C  0.13335921  0.78693906  0.68801415    -0.14200
C1399       C  0.14866256  0.78775615  0.70628683     0.07900
C1400       C  0.17107520  0.76205417  0.71087322    -0.14200
H1401       H  0.19416179  0.71547291  0.70169008     0.11900
H1402       H  0.12810377  0.76048993  0.66057166     0.11900
H1403       H  0.11616208  0.80666172  0.68417307     0.11900
H1404       H  0.18351357  0.76255023  0.72476959     0.11900
C1405       C  0.33838083  0.02165149  0.68857031    -0.14200
C1406       C  0.31151544  0.51557054  0.67673416     0.07900
C1407       C  0.29535464  0.48406043  0.67826360    -0.14200
C1408       C  0.30586518  0.95897819  0.69133588    -0.14200
C1409       C  0.33327612  0.96445142  0.70284125     0.07900
C1410       C  0.34948749  0.99608122  0.70130864    -0.14200
H1411       H  0.35110223  0.04583512  0.68765429     0.11900
H1412       H  0.27422358  0.47902060  0.66951578     0.11900
H1413       H  0.29251320  0.93522125  0.69250943     0.11900
H1414       H  0.37064933  0.00099239  0.71004519     0.11900
C1415       C  0.30581389  0.79206139  0.68995195    -0.14200
C1416       C  0.33193277  0.78620454  0.70247576     0.07900
C1417       C  0.34772804  0.75420553  0.70154069    -0.14200
C1418       C  0.33738438  0.72856921  0.68852782    -0.14200
C1419       C  0.31173958  0.73488657  0.67580565     0.07900
C1420       C  0.29617149  0.76691007  0.67656041    -0.14200
H1421       H  0.29280175  0.81614889  0.69056931     0.11900
H1422       H  0.36798535  0.74902771  0.71097940     0.11900
H1423       H  0.34967884  0.70404264  0.68817812     0.11900
H1424       H  0.27600482  0.77222601  0.66706630     0.11900
C1425       C  0.15152119  0.96996508  0.30174308    -0.14200
C1426       C  0.15516243  0.97899060  0.32143980     0.07900
C1427       C  0.15012837  0.51328691  0.32693201    -0.14200
C1428       C  0.14538410  0.53851823  0.31275128    -0.14200
C1429       C  0.14749346  0.53072478  0.29254577     0.07900
C1430       C  0.14682943  0.99532219  0.28759210    -0.14200
H1431       H  0.15307258  0.94333296  0.29716646     0.11900
H1432       H  0.15071092  0.52087200  0.34218503     0.11900
H1433       H  0.14015646  0.56414244  0.31794105     0.11900
H1434       H  0.14245836  0.98630695  0.27296269     0.11900
C1435       C  0.18296372  0.76002568  0.30451387    -0.14200
C1436       C  0.16399493  0.76346021  0.32138648     0.07900
C1437       C  0.13937427  0.73971516  0.32485711    -0.14200
C1438       C  0.13279483  0.71391513  0.31108790    -0.14200
C1439       C  0.15126597  0.71116021  0.29395037     0.07900
C1440       C  0.17690901  0.73381651  0.29103498    -0.14200
H1441       H  0.20276626  0.77738468  0.30187803     0.11900
H1442       H  0.12494974  0.74155164  0.33800235     0.11900
H1443       H  0.11316793  0.69630261  0.31366797     0.11900
H1444       H  0.19179809  0.73155914  0.27810457     0.11900
C1445       C  0.35013407  0.50493451  0.29964061    -0.14200
C1446       C  0.33434239  0.53693228  0.29854013     0.07900
C1447       C  0.30764452  0.54272853  0.31066669    -0.14200
C1448       C  0.29722435  0.01746282  0.32368862    -0.14200
C1449       C  0.31266057  0.98536693  0.32455835     0.07900
C1450       C  0.33904797  0.97917891  0.31228618    -0.14200
H1451       H  0.37086697  0.49977351  0.29053806     0.11900
H1452       H  0.29462481  0.56679010  0.30993493     0.11900
H1453       H  0.27656640  0.02277871  0.33283160     0.11900
H1454       H  0.35136539  0.95467906  0.31272384     0.11900
C1455       C  0.33773768  0.77218925  0.31173557    -0.14200
C1456       C  0.31354831  0.76498585  0.32536358     0.07900
C1457       C  0.29848920  0.73274272  0.32489754    -0.14200
C1458       C  0.30723075  0.70821814  0.31094456    -0.14200
C1459       C  0.33210470  0.71482553  0.29762540     0.07900
C1460       C  0.34731203  0.74710054  0.29815870    -0.14200
H1461       H  0.34944904  0.79701190  0.31177577     0.11900
H1462       H  0.27930349  0.72679402  0.33501481     0.11900
H1463       H  0.29462350  0.68390663  0.31059996     0.11900
H1464       H  0.36656749  0.75285033  0.28805773     0.11900
C1465       C  0.08131952  0.74499105  0.56001419    -0.14200
C1466       C  0.06491678  0.72063451  0.54856678     0.07900
C1467       C  0.07503541  0.68632690  0.54868681    -0.14200
C1468       C  0.10252770  0.67686979  0.55891084    -0.14200
C1469       C  0.12022331  0.70144141  0.56946796     0.07900
C1470       C  0.10873758  0.73535442  0.57059461    -0.14200
H1471       H  0.07373423  0.77161422  0.56004385     0.11900
H1472       H  0.06263393  0.66725592  0.53993928     0.11900
H1473       H  0.11059791  0.65043699  0.55798235     0.11900
H1474       H  0.12192082  0.75469686  0.57867690     0.11900
C1475       C  0.38096367  0.74434313  0.55812979    -0.14200
C1476       C  0.39838883  0.71895659  0.54801901     0.07900
C1477       C  0.38878814  0.68458679  0.54919284    -0.14200
C1478       C  0.36090277  0.67594921  0.55925066    -0.14200
C1479       C  0.34237317  0.70141442  0.56854673     0.07900
C1480       C  0.35318475  0.73555015  0.56854377    -0.14200
H1481       H  0.38806053  0.77104376  0.55719906     0.11900
H1482       H  0.40189010  0.66477116  0.54137003     0.11900
H1483       H  0.35321976  0.64941658  0.55923196     0.11900
H1484       H  0.33922150  0.75557972  0.57557179     0.11900
C1485       C  0.07875809  0.75445592  0.43719000    -0.14200
C1486       C  0.06589541  0.77462028  0.45239116     0.07900
C1487       C  0.08034558  0.80597164  0.45714664    -0.14200
C1488       C  0.10801739  0.81648685  0.44746935    -0.14200
C1489       C  0.12192940  0.79587556  0.43276778     0.07900
C1490       C  0.10663428  0.76509553  0.42736568    -0.14200
H1491       H  0.06793724  0.73001278  0.43347329     0.11900
H1492       H  0.07079641  0.82172493  0.46889524     0.11900
H1493       H  0.11901031  0.84045928  0.45192438     0.11900
H1494       H  0.11676687  0.74881128  0.41606115     0.11900
C1495       C  0.38327654  0.75264416  0.43792526    -0.14200
C1496       C  0.39705547  0.77292202  0.45271698     0.07900
C1497       C  0.38298723  0.80443923  0.45769652    -0.14200
C1498       C  0.35504383  0.81527738  0.44844136    -0.14200
C1499       C  0.34052595  0.79479196  0.43398577     0.07900
C1500       C  0.35515357  0.76358945  0.42854111    -0.14200
H1501       H  0.39364315  0.72795239  0.43417304     0.11900
H1502       H  0.39313450  0.82013823  0.46925342     0.11900
H1503       H  0.34445425  0.83948743  0.45292441     0.11900
H1504       H  0.34440430  0.74730154  0.41747790     0.11900
C1505       C  0.08630034  0.54989074  0.53945441    -0.14200
C1506       C  0.06801337  0.52239721  0.54635642     0.07900
C1507       C  0.07725135  0.50581629  0.56370773    -0.14200
C1508       C  0.10505811  0.51635626  0.57373934    -0.14200
C1509       C  0.12373552  0.54355954  0.56647065     0.07900
C1510       C  0.11371727  0.56034278  0.54935031    -0.14200
H1511       H  0.07964144  0.56283866  0.52605802     0.11900
H1512       H  0.06342140  0.48437019  0.56917012     0.11900
H1513       H  0.11211123  0.50311043  0.58694600     0.11900
H1514       H  0.12738221  0.58142995  0.54331120     0.11900
C1515       C  0.38719770  0.50714412  0.56363064    -0.14200
C1516       C  0.39910376  0.52725600  0.54822549     0.07900
C1517       C  0.38382759  0.55812758  0.54355147    -0.14200
C1518       C  0.35611751  0.56805414  0.55339062    -0.14200
C1519       C  0.34300793  0.54738336  0.56818633     0.07900
C1520       C  0.35927064  0.51725428  0.57365875    -0.14200
H1521       H  0.39869536  0.48304786  0.56727552     0.11900
H1522       H  0.39260965  0.57379787  0.53163725     0.11900
H1523       H  0.34426505  0.59141593  0.54881745     0.11900
H1524       H  0.34975651  0.50095397  0.58506127     0.11900
C1525       C  0.07167004  0.93578651  0.44812886    -0.14200
C1526       C  0.06346421  0.97051176  0.45022856     0.07900
C1527       C  0.08212260  0.99564516  0.44092085    -0.14200
C1528       C  0.10960594  0.98614971  0.43034224    -0.14200
C1529       C  0.11897617  0.95153257  0.42939983     0.07900
C1530       C  0.09933618  0.92640202  0.43794512    -0.14200
H1531       H  0.05769485  0.91615422  0.45538831     0.11900
H1532       H  0.07625754  0.02260544  0.44264719     0.11900
H1533       H  0.12455616  0.00592245  0.42399945     0.11900
H1534       H  0.10602794  0.89951886  0.43733148     0.11900
C1535       C  0.37676380  0.99858593  0.44423541    -0.14200
C1536       C  0.39672168  0.97315088  0.45218186     0.07900
C1537       C  0.38936560  0.93841874  0.44922278    -0.14200
C1538       C  0.36140373  0.92918722  0.43937167    -0.14200
C1539       C  0.34070715  0.95455244  0.43204856     0.07900
C1540       C  0.34901317  0.98930257  0.43398826    -0.14200
H1541       H  0.38198109  0.52551154  0.44670037     0.11900
H1542       H  0.40439545  0.91855949  0.45545206     0.11900
H1543       H  0.35544580  0.90220121  0.43795879     0.11900
H1544       H  0.33314920  0.50918602  0.42861328     0.11900
N1545       N  0.93285327  0.49939909  0.50033849    -0.37500
N1546       N  0.48074616  0.48518605  0.47040745    -0.58100
N1547       N  0.53031913  0.99589128  0.49947305    -0.37500
N1548       N  0.48256696  0.00707378  0.53014438    -0.58100
C1549       C  0.91396261  0.48674415  0.48593979     0.26100
C1550       C  0.91500690  0.00060204  0.51684875     0.26100
C1551       C  0.54814146  0.48326943  0.48451618     0.26100
C1552       C  0.54896195  0.99566368  0.51564863     0.26100
C1553       C  0.95440998  0.48402907  0.45897014     0.34700
C1554       C  0.50636543  0.48320038  0.45836176     0.34700
C1555       C  0.95717317  0.01921123  0.54037529     0.34700
C1556       C  0.50908528  0.01692510  0.54004683     0.34700
C1557       C  0.88362403  0.48011217  0.49342771    -0.22800
C1558       C  0.88425078  0.98903341  0.51286646    -0.22800
C1559       C  0.57857160  0.47511958  0.49132761    -0.22800
C1560       C  0.57905494  0.98289831  0.51091680    -0.22800
C1561       C  0.96329470  0.48120585  0.43948742    -0.23800
C1562       C  0.49627374  0.48071497  0.43910000    -0.23800
C1563       C  0.96752399  0.03600334  0.55711411    -0.23800
C1564       C  0.50047095  0.03456603  0.55690387    -0.23800
C1565       C  0.92259858  0.48251788  0.46600963    -0.19200
C1566       C  0.92477490  0.01454480  0.53502741    -0.19200
C1567       C  0.54093105  0.01009530  0.53406471    -0.19200
C1568       C  0.53849804  0.48038310  0.46467924    -0.19200
H1569       H  0.86294466  0.47032001  0.48565573     0.13700
H1570       H  0.86421629  0.98747786  0.52289835     0.13700
H1571       H  0.59866397  0.46518253  0.48301539     0.13700
H1572       H  0.59951287  0.98019507  0.52052109     0.13700
H1573       H  0.94766071  0.47892339  0.42692539     0.12000
H1574       H  0.51108800  0.47791401  0.42618498     0.12000
H1575       H  0.95288390  0.04819370  0.56823685     0.12000
H1576       H  0.51625361  0.04552323  0.56781755     0.12000
H1577       H  0.95538573  0.51055249  0.49854657     0.25300
H1578       H  0.50816859  0.00816037  0.49823964     0.25300
N1579       N  0.53045832  0.24725119  0.49985607    -0.37500
N1580       N  0.98177321  0.23373066  0.52916514    -0.58100
N1581       N  0.93312184  0.24483763  0.49949751    -0.37500
N1582       N  0.98172293  0.25525533  0.46940096    -0.58100
C1583       C  0.54907473  0.23540910  0.51461721     0.26100
C1584       C  0.54895824  0.24845561  0.48358872     0.26100
C1585       C  0.91490585  0.23164358  0.51403062     0.26100
C1586       C  0.91489771  0.24518404  0.48314904     0.26100
C1587       C  0.50762470  0.23274196  0.54101451     0.34700
C1588       C  0.95567660  0.23153229  0.54078153     0.34700
C1589       C  0.50757656  0.26612814  0.45923524     0.34700
C1590       C  0.95563838  0.26547555  0.45922455     0.34700
C1591       C  0.57984842  0.22945114  0.50759203    -0.22800
C1592       C  0.57976677  0.23772337  0.48810196    -0.22800
C1593       C  0.88472403  0.22366182  0.50674571    -0.22800
C1594       C  0.88470631  0.23233150  0.48732749    -0.22800
C1595       C  0.49792090  0.22977746  0.56032916    -0.23800
C1596       C  0.96495333  0.22905378  0.56018203    -0.23800
C1597       C  0.49790457  0.28212525  0.44215163    -0.23800
C1598       C  0.96492877  0.28177214  0.44216662    -0.23800
C1599       C  0.53972099  0.23115564  0.53445557    -0.19200
C1600       C  0.53977254  0.26176656  0.46516883    -0.19200
C1601       C  0.92358099  0.25988747  0.46505502    -0.19200
C1602       C  0.92386285  0.22853466  0.53395083    -0.19200
H1603       H  0.60052289  0.22060568  0.51569417     0.13700
H1604       H  0.60024956  0.23639542  0.47839326     0.13700
H1605       H  0.86443219  0.21336672  0.51464615     0.13700
H1606       H  0.86453443  0.22995821  0.47747066     0.13700
H1607       H  0.51300572  0.22752113  0.57312949     0.12000
H1608       H  0.94962173  0.22609311  0.57284105     0.12000
H1609       H  0.51301124  0.29327834  0.43098194     0.12000
H1610       H  0.94956578  0.29250325  0.43099558     0.12000
H1611       H  0.50772752  0.25776077  0.50122807     0.25300
H1612       H  0.95500573  0.25716708  0.50116019     0.25300
N1613       N  0.76926235  0.31089512  0.40717962    -0.07000
N1614       N  0.79499067  0.29145124  0.40977347    -0.59100
N1615       N  0.69465779  0.33556808  0.41943304    -0.06700
N1616       N  0.66945535  0.33385795  0.43094873    -0.61200
N1617       N  0.69402945  0.31108623  0.40617284    -0.06300
N1618       N  0.66801634  0.29190446  0.40852964    -0.59100
N1619       N  0.76849130  0.33570748  0.42024416    -0.06000
N1620       N  0.79344154  0.33382642  0.43196342    -0.61600
C1621       C  0.80979645  0.30613349  0.42536275     0.95200
C1622       C  0.65291595  0.30663282  0.42410530     0.95000
N1623       N  0.69329670  0.43818477  0.40520509    -0.07200
N1624       N  0.66655974  0.45648962  0.40670542    -0.59700
N1625       N  0.76781781  0.41505707  0.41967718    -0.05300
N1626       N  0.79314561  0.41686149  0.43107762    -0.61000
N1627       N  0.76831369  0.43958473  0.40653736    -0.07200
N1628       N  0.79412501  0.45894942  0.40888145    -0.60000
N1629       N  0.69369604  0.41395641  0.41851861    -0.04900
N1630       N  0.66734689  0.41477213  0.42910347    -0.61000
Mn1631     Mn  0.73128616  0.37518889  0.42002525     1.18400
C1632       C  0.65065743  0.44137296  0.42170704     0.97300
C1633       C  0.80926381  0.44433433  0.42429711     0.97900
N1634       N  0.69816345  0.30915126  0.35968023    -0.07200
N1635       N  0.68041729  0.28281156  0.35411174    -0.63500
N1636       N  0.77253068  0.33279402  0.34764718    -0.06000
N1637       N  0.79231233  0.32265263  0.33363009    -0.64200
N1638       N  0.77055731  0.30893340  0.36122388    -0.06700
N1639       N  0.78888071  0.28248119  0.35663239    -0.63800
N1640       N  0.70001226  0.33207225  0.34559279    -0.05600
N1641       N  0.68374279  0.32129117  0.33020809    -0.64500
Mn1642     Mn  0.73280558  0.30904848  0.38373456     1.10700
C1643       C  0.67130971  0.29068118  0.33571326     0.98500
C1644       C  0.80261047  0.29128561  0.33946542     0.98600
N1645       N  0.76965151  0.44085752  0.36039401    -0.06800
N1646       N  0.78728817  0.46766232  0.35562532    -0.62100
N1647       N  0.69866103  0.41473840  0.34529412    -0.06100
N1648       N  0.68004056  0.42320650  0.33045306    -0.58900
N1649       N  0.69710931  0.43855297  0.35900176    -0.07400
N1650       N  0.67745168  0.46338988  0.35371145    -0.61700
N1651       N  0.77173831  0.41681805  0.34680980    -0.06400
N1652       N  0.79098962  0.42723683  0.33257606    -0.58900
Mn1653     Mn  0.73201062  0.44034518  0.38299341     1.20200
Mn1654     Mn  0.73596515  0.37410185  0.34594957     1.10100
Cl1655     Cl  0.73308300  0.37465978  0.38303638    -0.86800
C1656       C  0.80090631  0.45891655  0.33836754     0.95500
C1657       C  0.66673359  0.45361488  0.33587024     0.95300
N1658       N  0.76907000  0.18856603  0.59382825    -0.07000
N1659       N  0.79535666  0.20730221  0.59164266    -0.59100
N1660       N  0.69437069  0.16344896  0.58136194    -0.06700
N1661       N  0.66860428  0.16458172  0.57030698    -0.61200
N1662       N  0.69371532  0.18795378  0.59463204    -0.06300
N1663       N  0.66727190  0.20663257  0.59269686    -0.59100
N1664       N  0.76842215  0.16381608  0.58072203    -0.06000
N1665       N  0.79399180  0.16488649  0.56947891    -0.61600
C1666       C  0.81057837  0.19207530  0.57632439     0.95200
C1667       C  0.65186220  0.19154046  0.57741845     0.95000
N1668       N  0.69434577  0.06039533  0.59430837    -0.07200
N1669       N  0.66847596  0.04099414  0.59174781    -0.59700
N1670       N  0.76886518  0.08486557  0.58084071    -0.05300
N1671       N  0.79439443  0.08380099  0.56958848    -0.61000
N1672       N  0.76997841  0.06054871  0.59408407    -0.07200
N1673       N  0.79668309  0.04229742  0.59205179    -0.60000
N1674       N  0.69513341  0.08469100  0.58106901    -0.04900
N1675       N  0.67032401  0.08253465  0.56931449    -0.61000
Mn1676     Mn  0.73171058  0.12422414  0.58046520     1.18400
C1677       C  0.65377528  0.05528107  0.57598314     0.97300
C1678       C  0.81160849  0.05724630  0.57660553     0.97900
N1679       N  0.69685160  0.18963018  0.64108295    -0.07200
N1680       N  0.67902359  0.21583239  0.64684348    -0.63500
N1681       N  0.77078699  0.16668192  0.65358915    -0.06000
N1682       N  0.79001208  0.17705661  0.66783022    -0.64200
N1683       N  0.76929384  0.19036318  0.63989022    -0.06700
N1684       N  0.78739058  0.21687325  0.64457535    -0.63800
N1685       N  0.69828394  0.16626225  0.65493673    -0.05600
N1686       N  0.68171959  0.17651683  0.67034951    -0.64500
Mn1687     Mn  0.73208750  0.19016127  0.61714145     1.10700
C1688       C  0.66952866  0.20736698  0.66510610     0.98500
C1689       C  0.80054778  0.20831528  0.66192510     0.98600
N1690       N  0.76926842  0.05888730  0.64025922    -0.06800
N1691       N  0.78714726  0.03239269  0.64529476    -0.62100
N1692       N  0.69754658  0.08394476  0.65433199    -0.06100
N1693       N  0.67788874  0.07535610  0.66864314    -0.58900
N1694       N  0.69676785  0.06041269  0.64044581    -0.07400
N1695       N  0.67665795  0.03567264  0.64504977    -0.61700
N1696       N  0.77057806  0.08298565  0.65383251    -0.06400
N1697       N  0.78950090  0.07303744  0.66828481    -0.58900
Mn1698     Mn  0.73254803  0.05893362  0.61710235     1.20200
Mn1699     Mn  0.73449169  0.12489633  0.65455802     1.10100
Cl1700     Cl  0.73274812  0.12456134  0.61744801    -0.86800
C1701       C  0.80008076  0.04155002  0.66266505     0.95500
C1702       C  0.66484098  0.04518649  0.66266690     0.95300
N1703       N  0.69188351  0.00287622  0.00017489    -0.37500
N1704       N  0.73961438  0.48727460  0.02960696    -0.58100
N1705       N  0.78933639  0.00009884  0.00065265    -0.37500
N1706       N  0.74166149  0.01294537  0.97051694    -0.58100
C1707       C  0.67311035  0.48874216  0.01416198     0.26100
C1708       C  0.67438454  0.00391029  0.98353717     0.26100
C1709       C  0.80738369  0.48743892  0.01541727     0.26100
C1710       C  0.80822582  0.00154214  0.98454963     0.26100
C1711       C  0.71328982  0.48512603  0.04106402     0.34700
C1712       C  0.76529252  0.48473053  0.04153620     0.34700
C1713       C  0.71616246  0.02545510  0.96068563     0.34700
C1714       C  0.76799590  0.02363595  0.96078402     0.34700
C1715       C  0.64330002  0.48098476  0.00628990    -0.22800
C1716       C  0.64408335  0.99065919  0.98701872    -0.22800
C1717       C  0.83819536  0.48099862  0.00855096    -0.22800
C1718       C  0.83868026  0.98982011  0.98914194    -0.22800
C1719       C  0.72223180  0.48092310  0.06041571    -0.23800
C1720       C  0.75521580  0.48066893  0.06071812    -0.23800
C1721       C  0.72624828  0.04349570  0.94437820    -0.23800
C1722       C  0.75919071  0.04229966  0.94442356    -0.23800
C1723       C  0.68145367  0.48402072  0.03405710    -0.19200
C1724       C  0.68393236  0.01934901  0.96579195    -0.19200
C1725       C  0.79983616  0.01635878  0.96637306    -0.19200
C1726       C  0.79753883  0.48308374  0.03516070    -0.19200
H1727       H  0.62288783  0.46982303  0.01368684     0.13700
H1728       H  0.62441340  0.98848699  0.97677907     0.13700
H1729       H  0.85857677  0.47159043  0.01671920     0.13700
H1730       H  0.85938076  0.98851830  0.97960403     0.13700
H1731       H  0.70664072  0.47760307  0.07292724     0.12000
H1732       H  0.77005513  0.47710058  0.07352601     0.12000
H1733       H  0.71143079  0.05615194  0.93359441     0.12000
H1734       H  0.77484942  0.05399937  0.93372756     0.12000
H1735       H  0.71368871  0.01509249  0.00237343     0.25300
H1736       H  0.76678365  0.01104649  0.00206106     0.25300
N1737       N  0.69151896  0.25005131  0.99914495    -0.37500
N1738       N  0.74057340  0.23959903  0.97014424    -0.58100
N1739       N  0.78811699  0.25179569  0.00015709    -0.37500
N1740       N  0.73897596  0.26192123  0.02961313    -0.58100
C1741       C  0.67394375  0.23618132  0.98447337     0.26100
C1742       C  0.67311603  0.24990670  0.01542804     0.26100
C1743       C  0.80633807  0.23769131  0.98584611     0.26100
C1744       C  0.80524765  0.25015236  0.01691993     0.26100
C1745       C  0.71495416  0.23917612  0.95812250     0.34700
C1746       C  0.76686057  0.24075148  0.95868816     0.34700
C1747       C  0.71269446  0.27442768  0.03870901     0.34700
C1748       C  0.76457251  0.27429919  0.03942414     0.34700
C1749       C  0.64401309  0.22693883  0.99162064    -0.22800
C1750       C  0.64345588  0.23574568  0.01110428    -0.22800
C1751       C  0.83538269  0.22695400  0.99367510    -0.22800
C1752       C  0.83468112  0.23487653  0.01327238    -0.22800
C1753       C  0.72494844  0.24021564  0.93880305    -0.23800
C1754       C  0.75796854  0.24128312  0.93916064    -0.23800
C1755       C  0.72156707  0.29453085  0.05459547    -0.23800
C1756       C  0.75460976  0.29443460  0.05505357    -0.23800
C1757       C  0.68310224  0.23442482  0.96451128    -0.19200
C1758       C  0.68098306  0.26609898  0.03334051    -0.19200
C1759       C  0.79658738  0.26606980  0.03474157    -0.19200
C1760       C  0.79837894  0.23652694  0.96571311    -0.19200
H1761       H  0.62414915  0.21608298  0.98352768     0.13700
H1762       H  0.62313449  0.23301596  0.02082485     0.13700
H1763       H  0.85543052  0.21540981  0.98602545     0.13700
H1764       H  0.85397480  0.23070817  0.02357166     0.13700
H1765       H  0.71007607  0.23929812  0.92585128     0.12000
H1766       H  0.77362800  0.24120015  0.92652959     0.12000
H1767       H  0.70589816  0.30766701  0.06481211     0.12000
H1768       H  0.76954295  0.30748716  0.06567137     0.12000
H1769       H  0.71298073  0.26340561  0.99760640     0.25300
H1770       H  0.76728511  0.26603269  0.99811155     0.25300
N1771       N  0.95210689  0.19086333  0.90639671    -0.07000
N1772       N  0.92581632  0.20963426  0.90840628    -0.59100
N1773       N  0.02741467  0.16799322  0.91942164    -0.06700
N1774       N  0.55365717  0.16956317  0.93006694    -0.61200
N1775       N  0.02709808  0.19255321  0.90631042    -0.06300
N1776       N  0.55322347  0.21174120  0.90795133    -0.59100
N1777       N  0.95289849  0.16653469  0.91962834    -0.06000
N1778       N  0.92712215  0.16779478  0.93074991    -0.61600
C1779       C  0.91051254  0.19479555  0.92367179     0.95200
C1780       C  0.56950509  0.19695900  0.92289976     0.95000
N1781       N  0.02940043  0.06419736  0.90682926    -0.07200
N1782       N  0.55570400  0.04549758  0.90924862    -0.59700
N1783       N  0.95484639  0.08771087  0.91989290    -0.05300
N1784       N  0.92985152  0.08605285  0.93152164    -0.61000
N1785       N  0.95408037  0.06309077  0.90669157    -0.07200
N1786       N  0.92806559  0.04396054  0.90918845    -0.60000
N1787       N  0.02829734  0.08892844  0.91993168    -0.04900
N1788       N  0.55342782  0.08774031  0.93148111    -0.61000
Mn1789     Mn  0.99089128  0.12784117  0.92028050     1.18400
C1790       C  0.57041026  0.06067046  0.92475348     0.97300
C1791       C  0.91324086  0.05880943  0.92482768     0.97900
N1792       N  0.52574221  0.19281324  0.86059120    -0.07200
N1793       N  0.54507894  0.21841710  0.85624594    -0.63500
N1794       N  0.95348951  0.16723461  0.84646284    -0.06000
N1795       N  0.93432338  0.17606189  0.83193927    -0.64200
N1796       N  0.95271911  0.19096469  0.86027203    -0.06700
N1797       N  0.93274998  0.21587839  0.85544249    -0.63800
N1798       N  0.52627499  0.16930983  0.84670606    -0.05600
N1799       N  0.54563757  0.17904631  0.83248857    -0.64500
Mn1800     Mn  0.98931226  0.19286248  0.88355669     1.10700
C1801       C  0.55760555  0.20954817  0.83873426     0.98500
C1802       C  0.92124793  0.20637894  0.83773700     0.98600
N1803       N  0.95614962  0.06061881  0.86015895    -0.06800
N1804       N  0.93796324  0.03428879  0.85509277    -0.62100
N1805       N  0.52888101  0.08665856  0.84707791    -0.06100
N1806       N  0.55009055  0.07882361  0.83339908    -0.58900
N1807       N  0.52917769  0.06315179  0.86087689    -0.07400
N1808       N  0.55081656  0.03934216  0.85693806    -0.61700
N1809       N  0.95606116  0.08403325  0.84629081    -0.06400
N1810       N  0.93808241  0.07367062  0.83150499    -0.58900
Mn1811     Mn  0.99208062  0.06155260  0.88378096     1.20200
Mn1812     Mn  0.99112221  0.12678605  0.84617331     1.10100
Cl1813     Cl  0.99073878  0.12721104  0.88332889    -0.86800
C1814       C  0.92655778  0.04277940  0.83724261     0.95500
C1815       C  0.56388828  0.04934862  0.83977686     0.95300
N1816       N  0.63494159  0.37787408  0.72491446    -0.37500
N1817       N  0.61845071  0.32598555  0.75367156    -0.58100
N1818       N  0.60767704  0.37921268  0.78313445    -0.37500
N1819       N  0.62361083  0.43145344  0.75435066    -0.58100
C1820       C  0.64741560  0.34943807  0.71624962     0.26100
C1821       C  0.64803478  0.40547026  0.71591527     0.26100
C1822       C  0.59244657  0.35250644  0.79164597     0.26100
C1823       C  0.59775780  0.40822341  0.79236711     0.26100
C1824       C  0.62611531  0.30466125  0.73870662     0.34700
C1825       C  0.60860321  0.30570781  0.76850081     0.34700
C1826       C  0.64042997  0.44923290  0.74090944     0.34700
C1827       C  0.62675258  0.44894226  0.77135383     0.34700
C1828       C  0.66904484  0.35904569  0.70190512    -0.22800
C1829       C  0.67003609  0.39429024  0.70203585    -0.22800
C1830       C  0.57285649  0.36462748  0.80656767    -0.22800
C1831       C  0.57598030  0.39983291  0.80691176    -0.22800
C1832       C  0.62064864  0.27083259  0.74399890    -0.23800
C1833       C  0.61041164  0.27143625  0.76294938    -0.23800
C1834       C  0.65613448  0.47654999  0.74979059    -0.23800
C1835       C  0.64658218  0.47703744  0.76896007    -0.23800
C1836       C  0.64007967  0.31490088  0.72081742    -0.19200
C1837       C  0.64214203  0.44041333  0.72084637    -0.19200
C1838       C  0.60930093  0.44167589  0.78844534    -0.19200
C1839       C  0.59598646  0.31742838  0.78655125    -0.19200
H1840       H  0.68356260  0.34234600  0.69279250     0.13700
H1841       H  0.68616382  0.40981696  0.69338338     0.13700
H1842       H  0.55752596  0.34967493  0.81605337     0.13700
H1843       H  0.56357598  0.41714562  0.81676909     0.13700
H1844       H  0.62407916  0.24781169  0.73533926     0.12000
H1845       H  0.60455898  0.24895210  0.77146496     0.12000
H1846       H  0.67316039  0.49404643  0.74325232     0.12000
H1847       H  0.65367342  0.49560260  0.77996215     0.12000
H1848       H  0.61641454  0.37860316  0.73511656     0.25300
H1849       H  0.62600967  0.37755463  0.77283187     0.25300
N1850       N  0.86511363  0.42749925  0.74994525    -0.37500
N1851       N  0.87880531  0.37471093  0.77880820    -0.58100
N1852       N  0.86322991  0.32249812  0.74996823    -0.37500
N1853       N  0.84643968  0.37533159  0.72198089    -0.58100
C1854       C  0.86599180  0.44584577  0.76678394     0.26100
C1855       C  0.84836089  0.44626761  0.73680709     0.26100
C1856       C  0.86327705  0.30423589  0.76677404     0.26100
C1857       C  0.84580519  0.30453685  0.73672567     0.26100
C1858       C  0.89237558  0.40232430  0.78753222     0.34700
C1859       C  0.89118220  0.34663569  0.78763137     0.34700
C1860       C  0.84784883  0.40314352  0.71022563     0.34700
C1861       C  0.84701070  0.34739421  0.71016429     0.34700
C1862       C  0.84936472  0.47641206  0.76441258    -0.22800
C1863       C  0.83809472  0.47661595  0.74550742    -0.22800
C1864       C  0.84537394  0.27456491  0.76428060    -0.22800
C1865       C  0.83421670  0.27481788  0.74533780    -0.22800
C1866       C  0.91369351  0.39175546  0.80184337    -0.23800
C1867       C  0.91291547  0.35644058  0.80191959    -0.23800
C1868       C  0.84983765  0.39285298  0.69083586    -0.23800
C1869       C  0.84938298  0.35749946  0.69079538    -0.23800
C1870       C  0.88374154  0.43676585  0.78359868    -0.19200
C1871       C  0.84410443  0.43741587  0.71688015    -0.19200
C1872       C  0.84226387  0.31331175  0.71674799    -0.19200
C1873       C  0.88119499  0.31257220  0.78370733    -0.19200
H1874       H  0.84596163  0.49662066  0.77514269     0.13700
H1875       H  0.82420740  0.49699835  0.73890669     0.13700
H1876       H  0.84102198  0.25465803  0.77495816     0.13700
H1877       H  0.81952802  0.25513380  0.73863621     0.13700
H1878       H  0.92814751  0.40775131  0.81133810     0.12000
H1879       H  0.92666774  0.33995645  0.81147257     0.12000
H1880       H  0.85100577  0.40910596  0.67805493     0.12000
H1881       H  0.85017875  0.34116956  0.67795589     0.12000
H1882       H  0.87842211  0.40553357  0.74694512     0.25300
H1883       H  0.87749678  0.34377592  0.74700865     0.25300
N1884       N  0.63965213  0.12194593  0.27368960    -0.37500
N1885       N  0.62778092  0.06973493  0.24407899    -0.58100
N1886       N  0.61173452  0.12371787  0.21572048    -0.37500
N1887       N  0.62297219  0.17552644  0.24552587    -0.58100
C1888       C  0.65213232  0.09403367  0.28277069     0.26100
C1889       C  0.65058913  0.15008102  0.28329379     0.26100
C1890       C  0.60098371  0.09498624  0.20662432     0.26100
C1891       C  0.59645762  0.15082216  0.20760711     0.26100
C1892       C  0.64524555  0.05147802  0.25701049     0.34700
C1893       C  0.63124702  0.05377757  0.22664327     0.34700
C1894       C  0.63149589  0.19607069  0.26065474     0.34700
C1895       C  0.61495334  0.19657152  0.23059213     0.34700
C1896       C  0.67231529  0.10483273  0.29769341    -0.22800
C1897       C  0.67067711  0.14002712  0.29835367    -0.22800
C1898       C  0.57845981  0.10388752  0.19261995    -0.22800
C1899       C  0.57580046  0.13916889  0.19313276    -0.22800
C1900       C  0.66168159  0.02540683  0.24737546    -0.23800
C1901       C  0.65194813  0.02616990  0.22822603    -0.23800
C1902       C  0.62877347  0.23026026  0.25529263    -0.23800
C1903       C  0.61922013  0.23056292  0.23618273    -0.23800
C1904       C  0.64708952  0.05918268  0.27722451    -0.19200
C1905       C  0.64345202  0.18475850  0.27891068    -0.19200
C1906       C  0.60117847  0.18581218  0.21262299    -0.19200
C1907       C  0.61277008  0.06142301  0.21003939    -0.19200
H1908       H  0.68758784  0.08911979  0.30680564     0.13700
H1909       H  0.68378226  0.15642702  0.30835657     0.13700
H1910       H  0.56541360  0.08688333  0.18293589     0.13700
H1911       H  0.56020609  0.15446900  0.18398837     0.13700
H1912       H  0.67949253  0.00814982  0.25333997     0.12000
H1913       H  0.65943043  0.00874343  0.21670886     0.12000
H1914       H  0.63367965  0.25286604  0.26403436     0.12000
H1915       H  0.61538547  0.25348007  0.22761173     0.12000
H1916       H  0.62228327  0.12171027  0.26279884     0.25300
H1917       H  0.63069938  0.12484077  0.22559795     0.25300
N1918       N  0.86542964  0.07357473  0.25106108    -0.37500
N1919       N  0.84637617  0.12573745  0.27852343    -0.58100
N1920       N  0.86175328  0.17838065  0.24986794    -0.37500
N1921       N  0.87761478  0.12620831  0.22144227    -0.58100
C1922       C  0.84898882  0.05478304  0.26432901     0.26100
C1923       C  0.86648724  0.05506343  0.23433425     0.26100
C1924       C  0.84434696  0.19613258  0.26320432     0.26100
C1925       C  0.86081822  0.19624696  0.23295192     0.26100
C1926       C  0.84838579  0.09828140  0.29052513     0.34700
C1927       C  0.84780220  0.15397749  0.29003509     0.34700
C1928       C  0.89165820  0.09859427  0.21298194     0.34700
C1929       C  0.88924815  0.15421520  0.21218733     0.34700
C1930       C  0.83909081  0.02420520  0.25578984    -0.22800
C1931       C  0.85037714  0.02426746  0.23689025    -0.22800
C1932       C  0.83158716  0.22528351  0.25453880    -0.22800
C1933       C  0.84211431  0.22540814  0.23542745    -0.22800
C1934       C  0.85155197  0.10906955  0.30974381    -0.23800
C1935       C  0.85142556  0.14440604  0.30942926    -0.23800
C1936       C  0.91239612  0.10904576  0.19831851    -0.23800
C1937       C  0.91092558  0.14433135  0.19784003    -0.23800
C1938       C  0.84470480  0.06385222  0.28422183    -0.19200
C1939       C  0.88389200  0.06415470  0.21741848    -0.19200
C1940       C  0.87892825  0.18824170  0.21603832    -0.19200
C1941       C  0.84213607  0.18779175  0.28329340    -0.19200
H1942       H  0.82542139  0.50377314  0.26247709     0.13700
H1943       H  0.84724866  0.50385824  0.22626303     0.13700
H1944       H  0.81666867  0.24472674  0.26133940     0.13700
H1945       H  0.83697978  0.24494455  0.22465376     0.13700
H1946       H  0.85347668  0.09316568  0.32263104     0.12000
H1947       H  0.85313827  0.16108953  0.32208374     0.12000
H1948       H  0.92693788  0.09296222  0.18887724     0.12000
H1949       H  0.92426845  0.16069177  0.18801846     0.12000
H1950       H  0.87856470  0.09592280  0.25386348     0.25300
H1951       H  0.87686402  0.15764908  0.25288207     0.25300
N1952       N  0.95066135  0.31323167  0.09421065    -0.07000
N1953       N  0.92422075  0.29468731  0.09199241    -0.59100
N1954       N  0.02492098  0.33608805  0.07971531    -0.06700
N1955       N  0.54911843  0.33362426  0.06748283    -0.61200
N1956       N  0.02596389  0.31151521  0.09279609    -0.06300
N1957       N  0.55143081  0.29171771  0.08969750    -0.59100
N1958       N  0.95158326  0.33770648  0.08106363    -0.06000
N1959       N  0.92619585  0.33657857  0.06974901    -0.61600
C1960       C  0.90925667  0.30974564  0.07658024     0.95200
C1961       C  0.56557770  0.30598146  0.07375479     0.95000
N1962       N  0.02708938  0.44003388  0.09358164    -0.07200
N1963       N  0.55285540  0.45940368  0.09114158    -0.59700
N1964       N  0.95244467  0.41627226  0.08141921    -0.05300
N1965       N  0.92671842  0.41785357  0.07039101    -0.61000
N1966       N  0.95201770  0.44048337  0.09485494    -0.07200
N1967       N  0.92567389  0.45939698  0.09309090    -0.60000
N1968       N  0.02636152  0.41548424  0.08035251    -0.04900
N1969       N  0.55150839  0.41731529  0.06874599    -0.61000
Mn1970     Mn  0.98893203  0.37640457  0.08014394     1.18400
C1971       C  0.56777492  0.44482988  0.07554804     0.97300
C1972       C  0.91017145  0.44474031  0.07769668     0.97900
N1973       N  0.52696283  0.31027447  0.13891029    -0.07200
N1974       N  0.54644560  0.28457779  0.14299455    -0.63500
N1975       N  0.95517479  0.33444636  0.15462273    -0.06000
N1976       N  0.93685334  0.32491614  0.16944356    -0.64200
N1977       N  0.95399577  0.31116971  0.14057579    -0.06700
N1978       N  0.93458599  0.28586848  0.14552484    -0.63800
N1979       N  0.52781286  0.33359268  0.15291419    -0.05600
N1980       N  0.54753879  0.32369125  0.16688963    -0.64500
Mn1981     Mn  0.98932051  0.31042853  0.11647489     1.10700
C1982       C  0.55932778  0.29319969  0.16045350     0.98500
C1983       C  0.92377378  0.29471623  0.16351321     0.98600
N1984       N  0.95562716  0.44116048  0.14115115    -0.06800
N1985       N  0.93664812  0.46676107  0.14635530    -0.62100
N1986       N  0.52922464  0.41636451  0.15315503    -0.06100
N1987       N  0.55092647  0.42435173  0.16649223    -0.58900
N1988       N  0.52869919  0.43994949  0.13940596    -0.07400
N1989       N  0.55028936  0.46389469  0.14298320    -0.61700
N1990       N  0.95636114  0.41757878  0.15491127    -0.06400
N1991       N  0.93817064  0.42712317  0.16980076    -0.58900
Mn1992     Mn  0.99072159  0.44155014  0.11713589     1.20200
Mn1993     Mn  0.99213203  0.37555485  0.15437419     1.10100
Cl1994     Cl  0.99023945  0.37596214  0.11716020    -0.86800
C1995       C  0.92565854  0.45766752  0.16419351     0.95500
C1996       C  0.56419708  0.45393888  0.15988551     0.95300
C1997       C  0.91212648  0.00852473  0.21064376    -0.14200
C1998       C  0.89380657  0.03626998  0.20377921     0.07900
C1999       C  0.88459228  0.03699866  0.18405535    -0.14200
C2000       C  0.89439190  0.51093139  0.17125785    -0.14200
C2001       C  0.91290727  0.48333361  0.17808615     0.07900
C2002       C  0.92136583  0.98210386  0.19794306    -0.14200
H2003       H  0.91948103  0.00752822  0.22582010     0.11900
H2004       H  0.87007922  0.05793080  0.17855564     0.11900
H2005       H  0.88766634  0.51238816  0.15598926     0.11900
H2006       H  0.93601709  0.96134561  0.20351180     0.11900
C2007       C  0.88271106  0.21430693  0.18226958    -0.14200
C2008       C  0.88820717  0.21669868  0.20250994     0.07900
C2009       C  0.90355381  0.24616095  0.20991399    -0.14200
C2010       C  0.91389041  0.27223171  0.19735772    -0.14200
C2011       C  0.90956135  0.26918563  0.17705336     0.07900
C2012       C  0.89361256  0.24008566  0.16965845    -0.14200
H2013       H  0.87056118  0.19212591  0.17619427     0.11900
H2014       H  0.90819096  0.24862204  0.22543862     0.11900
H2015       H  0.92632235  0.29417117  0.20349464     0.11900
H2016       H  0.88990298  0.23708762  0.15407164     0.11900
C2017       C  0.57783804  0.47653822  0.19307962    -0.14200
C2018       C  0.58089330  0.47880665  0.17269723     0.07900
C2019       C  0.59679238  0.00727199  0.16461750    -0.14200
C2020       C  0.60819494  0.03372508  0.17668437    -0.14200
C2021       C  0.60334471  0.03238450  0.19698527     0.07900
C2022       C  0.58867684  0.00320252  0.20507407    -0.14200
H2023       H  0.56557222  0.45502303  0.19971340     0.11900
H2024       H  0.59961500  0.00947384  0.14892670     0.11900
H2025       H  0.61998848  0.05565492  0.17016696     0.11900
H2026       H  0.58473902  0.00154519  0.22070225     0.11900
C2027       C  0.60214659  0.21477979  0.17981353    -0.14200
C2028       C  0.58954452  0.21267740  0.19884176     0.07900
C2029       C  0.56677306  0.23708275  0.20497544    -0.14200
C2030       C  0.55816988  0.26421503  0.19278390    -0.14200
C2031       C  0.57100402  0.26652935  0.17386935     0.07900
C2032       C  0.59257006  0.24126964  0.16731102    -0.14200
H2033       H  0.61951827  0.19604744  0.17472642     0.11900
H2034       H  0.55623484  0.23553102  0.21942751     0.11900
H2035       H  0.54077113  0.28284978  0.19795284     0.11900
H2036       H  0.60218128  0.24225887  0.15260237     0.11900
C2037       C  0.57546982  0.52677671  0.80626357    -0.14200
C2038       C  0.57983174  0.02448798  0.82656075     0.07900
C2039       C  0.59630499  0.99602707  0.83422082    -0.14200
C2040       C  0.60699826  0.46959619  0.82185897    -0.14200
C2041       C  0.60081475  0.47090281  0.80168889     0.07900
C2042       C  0.58556673  0.50010545  0.79398957    -0.14200
H2043       H  0.56273465  0.54830122  0.79994875     0.11900
H2044       H  0.60011617  0.99380049  0.84982906     0.11900
H2045       H  0.61923494  0.94765298  0.82807807     0.11900
H2046       H  0.58058156  0.50176371  0.77847890     0.11900
C2047       C  0.59333206  0.25847198  0.83034338    -0.14200
C2048       C  0.56826309  0.23626378  0.82515887     0.07900
C2049       C  0.55100119  0.24210607  0.80789764    -0.14200
C2050       C  0.55884984  0.26970901  0.79587555    -0.14200
C2051       C  0.58478124  0.29111706  0.80061537     0.07900
C2052       C  0.60183394  0.28551960  0.81799403    -0.14200
H2053       H  0.60643745  0.25465971  0.84383084     0.11900
H2054       H  0.53097181  0.22579710  0.80396030     0.11900
H2055       H  0.54537718  0.27382450  0.78255348     0.11900
H2056       H  0.62194376  0.30179655  0.82181355     0.11900
C2057       C  0.89679153  0.98821362  0.83039781    -0.14200
C2058       C  0.91381019  0.01679841  0.82344534     0.07900
C2059       C  0.92030025  0.01923284  0.80333774    -0.14200
C2060       C  0.91057798  0.49322120  0.79049705    -0.14200
C2061       C  0.89363943  0.46455685  0.79742729     0.07900
C2062       C  0.88641534  0.46255079  0.81746843    -0.14200
H2063       H  0.89155105  0.98573625  0.84584226     0.11900
H2064       H  0.93374626  0.04074085  0.79760251     0.11900
H2065       H  0.91656344  0.49526050  0.77512828     0.11900
H2066       H  0.87306016  0.44090338  0.82311990     0.11900
C2067       C  0.91423565  0.22862366  0.80368298    -0.14200
C2068       C  0.90819128  0.23191501  0.82381882     0.07900
C2069       C  0.89216071  0.26140346  0.83068296    -0.14200
C2070       C  0.88275740  0.28727467  0.81768779    -0.14200
C2071       C  0.88979033  0.28448260  0.79762557     0.07900
C2072       C  0.90540639  0.25475076  0.79077097    -0.14200
H2073       H  0.92687975  0.20642306  0.79797153     0.11900
H2074       H  0.88724550  0.26460983  0.84613925     0.11900
H2075       H  0.87041605  0.30974093  0.82331854     0.11900
H2076       H  0.91123746  0.25202503  0.77540348     0.11900
C2077       C  0.64104843  0.25597179  0.06031651    -0.14200
C2078       C  0.65404434  0.27747027  0.04588718     0.07900
C2079       C  0.63884371  0.30848771  0.04148468    -0.14200
C2080       C  0.61050706  0.31761489  0.05091455    -0.14200
C2081       C  0.59670428  0.29593722  0.06501743     0.07900
C2082       C  0.61248846  0.26522024  0.06991460    -0.14200
H2083       H  0.65239342  0.23163397  0.06361418     0.11900
H2084       H  0.64840778  0.32511048  0.03023114     0.11900
H2085       H  0.59908070  0.34152669  0.04682868     0.11900
H2086       H  0.60234232  0.24805164  0.08068353     0.11900
C2087       C  0.83881338  0.30848357  0.04219160    -0.14200
C2088       C  0.82295973  0.27830378  0.04745484     0.07900
C2089       C  0.83459361  0.25866090  0.06313372    -0.14200
C2090       C  0.86237365  0.26899861  0.07318266    -0.14200
C2091       C  0.87871404  0.29891161  0.06749857     0.07900
C2092       C  0.86630465  0.31870177  0.05208899    -0.14200
H2093       H  0.83036546  0.32362927  0.02997041     0.11900
H2094       H  0.82278865  0.23494555  0.06713953     0.11900
H2095       H  0.87148019  0.25327391  0.08496561     0.11900
H2096       H  0.87827344  0.34184996  0.04728870     0.11900
C2097       C  0.63881911  0.25059857  0.94149871    -0.14200
C2098       C  0.65805182  0.22509332  0.95004215     0.07900
C2099       C  0.65016725  0.19043536  0.94728686    -0.14200
C2100       C  0.62211165  0.18145504  0.93741539    -0.14200
C2101       C  0.60167690  0.20692666  0.92991127     0.07900
C2102       C  0.61088840  0.24153864  0.93127789    -0.14200
H2103       H  0.64452074  0.27748900  0.94365502     0.11900
H2104       H  0.66465389  0.17046687  0.95386835     0.11900
H2105       H  0.61569078  0.15456910  0.93631756     0.11900
H2106       H  0.59546441  0.26158056  0.92563741     0.11900
C2107       C  0.84292282  0.25065830  0.94245772    -0.14200
C2108       C  0.82380997  0.22605120  0.95182971     0.07900
C2109       C  0.83147894  0.19113407  0.95007502    -0.14200
C2110       C  0.85920423  0.18099949  0.94023086    -0.14200
C2111       C  0.87926329  0.20559414  0.93159976     0.07900
C2112       C  0.87038246  0.24039852  0.93214036    -0.14200
H2113       H  0.83732109  0.27774373  0.94383717     0.11900
H2114       H  0.81696361  0.17193714  0.95731977     0.11900
H2115       H  0.86547041  0.15398205  0.93983095     0.11900
H2116       H  0.88560934  0.25972425  0.92559625     0.11900
C2117       C  0.63559354  0.49952900  0.05622279    -0.14200
C2118       C  0.65536997  0.47429652  0.04772343     0.07900
C2119       C  0.64772801  0.43952584  0.05007145    -0.14200
C2120       C  0.61968922  0.43009264  0.05979874    -0.14200
C2121       C  0.59915627  0.45524736  0.06765529     0.07900
C2122       C  0.60778240  0.49001624  0.06638018    -0.14200
H2123       H  0.64104553  0.52650847  0.05431690     0.11900
H2124       H  0.66262912  0.41980486  0.04347883     0.11900
H2125       H  0.61360257  0.40310157  0.06075514     0.11900
H2126       H  0.59216802  0.50978947  0.07225609     0.11900
C2127       C  0.83887763  0.49739987  0.06074767    -0.14200
C2128       C  0.82255453  0.47279448  0.04941410     0.07900
C2129       C  0.83299006  0.43862227  0.04951486    -0.14200
C2130       C  0.86070417  0.42955578  0.05959052    -0.14200
C2131       C  0.87830151  0.45435267  0.07004031     0.07900
C2132       C  0.86653664  0.48813005  0.07120106    -0.14200
H2133       H  0.83109439  0.02395838  0.06072885     0.11900
H2134       H  0.82075037  0.41940544  0.04078378     0.11900
H2135       H  0.86904521  0.40324577  0.05860277     0.11900
H2136       H  0.87969107  0.50764628  0.07916459     0.11900
C2137       C  0.64372714  0.06323476  0.95681057    -0.14200
C2138       C  0.65817061  0.03159248  0.95270509     0.07900
C2139       C  0.64533944  0.01030828  0.93804487    -0.14200
C2140       C  0.61724875  0.02003472  0.92821853    -0.14200
C2141       C  0.60179518  0.05101549  0.93311637     0.07900
C2142       C  0.61583242  0.07285285  0.94712981    -0.14200
H2143       H  0.65332263  0.07981637  0.96814473     0.11900
H2144       H  0.65624057  0.48563349  0.93487552     0.11900
H2145       H  0.60699008  0.50284994  0.91742539     0.11900
H2146       H  0.60467659  0.09701528  0.95113399     0.11900
C2147       C  0.84218912  0.05871666  0.95888206    -0.14200
C2148       C  0.82647395  0.02831432  0.95374219     0.07900
C2149       C  0.83801419  0.00852019  0.93798253    -0.14200
C2150       C  0.86589723  0.01858469  0.92796109    -0.14200
C2151       C  0.88238364  0.04843615  0.93371190     0.07900
C2152       C  0.86975145  0.06870390  0.94898433    -0.14200
H2153       H  0.83358972  0.07420445  0.97101112     0.11900
H2154       H  0.82606990  0.98486876  0.93390496     0.11900
H2155       H  0.87499890  0.00266307  0.91617254     0.11900
H2156       H  0.88162110  0.09203883  0.95369796     0.11900
C2157       C  0.64939726  0.48508096  0.67103888    -0.14200
C2158       C  0.65232174  0.01963507  0.67657123     0.07900
C2159       C  0.64554265  0.02888198  0.69590197    -0.14200
C2160       C  0.63964452  0.00360001  0.70986056    -0.14200
C2161       C  0.64285494  0.46822630  0.70523732     0.07900
C2162       C  0.64384564  0.45988658  0.68509385    -0.14200
H2163       H  0.65240152  0.47728355  0.65592398     0.11900
H2164       H  0.64541674  0.05563314  0.70034605     0.11900
H2165       H  0.63251542  0.01252757  0.72413581     0.11900
H2166       H  0.64051428  0.43395775  0.67985794     0.11900
C2167       C  0.67689793  0.23508585  0.69778320    -0.14200
C2168       C  0.66131714  0.23410936  0.67957983     0.07900
C2169       C  0.63992290  0.26051159  0.67466880    -0.14200
C2170       C  0.63336027  0.28693794  0.68801374    -0.14200
C2171       C  0.64866269  0.28775511  0.70628670     0.07900
C2172       C  0.67107540  0.26205336  0.71087348    -0.14200
H2173       H  0.69416256  0.21547214  0.70169073     0.11900
H2174       H  0.62810636  0.26048887  0.66057116     0.11900
H2175       H  0.61616324  0.30666049  0.68417234     0.11900
H2176       H  0.68351319  0.26254956  0.72477004     0.11900
C2177       C  0.83838095  0.52165238  0.68856962    -0.14200
C2178       C  0.81151499  0.01556976  0.67673491     0.07900
C2179       C  0.79535332  0.98406018  0.67826466    -0.14200
C2180       C  0.80586613  0.45897864  0.69133518    -0.14200
C2181       C  0.83327702  0.46445221  0.70284056     0.07900
C2182       C  0.84948805  0.49608220  0.70130787    -0.14200
H2183       H  0.85110204  0.54583619  0.68765361     0.11900
H2184       H  0.77422197  0.97902088  0.66951700     0.11900
H2185       H  0.79251445  0.43522152  0.69250874     0.11900
H2186       H  0.87064995  0.50099364  0.71004432     0.11900
C2187       C  0.80581554  0.29206227  0.68995057    -0.14200
C2188       C  0.83193394  0.28620522  0.70247474     0.07900
C2189       C  0.84772894  0.25420604  0.70153988    -0.14200
C2190       C  0.83738521  0.22856963  0.68852711    -0.14200
C2191       C  0.81174074  0.23488704  0.67580474     0.07900
C2192       C  0.79617318  0.26691087  0.67655907    -0.14200
H2193       H  0.79280363  0.31614994  0.69056765     0.11900
H2194       H  0.86798603  0.24902806  0.71097873     0.11900
H2195       H  0.84967935  0.20404286  0.68817768     0.11900
H2196       H  0.77600686  0.27222697  0.66706471     0.11900
C2197       C  0.65151772  0.46996552  0.30174305    -0.14200
C2198       C  0.65516093  0.47899105  0.32143962     0.07900
C2199       C  0.65012703  0.01328611  0.32693215    -0.14200
C2200       C  0.64538154  0.03851724  0.31275142    -0.14200
C2201       C  0.64749246  0.03072426  0.29254590     0.07900
C2202       C  0.64682689  0.49532285  0.28759210    -0.14200
H2203       H  0.65306677  0.44333320  0.29716653     0.11900
H2204       H  0.65070826  0.02087097  0.34218523     0.11900
H2205       H  0.64015192  0.06414105  0.31794113     0.11900
H2206       H  0.64245392  0.48630788  0.27296283     0.11900
C2207       C  0.68296484  0.26002440  0.30451494    -0.14200
C2208       C  0.66399435  0.26345995  0.32138679     0.07900
C2209       C  0.63937252  0.23971596  0.32485659    -0.14200
C2210       C  0.63279358  0.21391604  0.31108723    -0.14200
C2211       C  0.65126634  0.21116019  0.29395039     0.07900
C2212       C  0.67691061  0.23381527  0.29103594    -0.14200
H2213       H  0.70276824  0.27738262  0.30187979     0.11900
H2214       H  0.62494667  0.24155323  0.33800126     0.11900
H2215       H  0.61316576  0.19630437  0.31366661     0.11900
H2216       H  0.69180097  0.23155710  0.27810611     0.11900
C2217       C  0.85013556  0.00493502  0.29964137    -0.14200
C2218       C  0.83434251  0.03693194  0.29854018     0.07900
C2219       C  0.80764333  0.04272703  0.31066585    -0.14200
C2220       C  0.79722562  0.51746479  0.32368954    -0.14200
C2221       C  0.81265999  0.48536779  0.32455830     0.07900
C2222       C  0.83904627  0.47917868  0.31228538    -0.14200
H2223       H  0.87086936  0.99977486  0.29053943     0.11900
H2224       H  0.79462253  0.06678785  0.30993345     0.11900
H2225       H  0.77656872  0.52278167  0.33283322     0.11900
H2226       H  0.85136242  0.45467804  0.31272237     0.11900
C2227       C  0.83773686  0.27219089  0.31173481    -0.14200
C2228       C  0.81354867  0.26498757  0.32536364     0.07900
C2229       C  0.79849029  0.23274404  0.32489849    -0.14200
C2230       C  0.80723111  0.20821914  0.31094553    -0.14200
C2231       C  0.83210385  0.21482637  0.29762552     0.07900
C2232       C  0.84731069  0.24710174  0.29815801    -0.14200
H2233       H  0.84944767  0.29701383  0.31177429     0.11900
H2234       H  0.77930551  0.22679525  0.33501639     0.11900
H2235       H  0.79462412  0.18390747  0.31060160     0.11900
H2236       H  0.86656530  0.25285153  0.28805643     0.11900
C2237       C  0.58132052  0.24499086  0.56001391    -0.14200
C2238       C  0.56491817  0.22063434  0.54856627     0.07900
C2239       C  0.57503664  0.18632672  0.54868642    -0.14200
C2240       C  0.60252840  0.17686950  0.55891092    -0.14200
C2241       C  0.62022372  0.20144106  0.56946825     0.07900
C2242       C  0.60873814  0.23535414  0.57059473    -0.14200
H2243       H  0.57373520  0.27161403  0.56004354     0.11900
H2244       H  0.56263534  0.16725575  0.53993879     0.11900
H2245       H  0.61059848  0.15043666  0.55798260     0.11900
H2246       H  0.62192116  0.25469651  0.57867722     0.11900
C2247       C  0.88096415  0.24434154  0.55812989    -0.14200
C2248       C  0.89838994  0.21895496  0.54801955     0.07900
C2249       C  0.88878994  0.18458497  0.54919377    -0.14200
C2250       C  0.86090455  0.17594714  0.55925151    -0.14200
C2251       C  0.84237433  0.20141239  0.56854709     0.07900
C2252       C  0.85318527  0.23554834  0.56854379    -0.14200
H2253       H  0.88806045  0.27104230  0.55719884     0.11900
H2254       H  0.90189246  0.16476935  0.54137129     0.11900
H2255       H  0.85322196  0.14941433  0.55923312     0.11900
H2256       H  0.83922148  0.25557789  0.57557144     0.11900
C2257       C  0.57875773  0.25445627  0.43719034    -0.14200
C2258       C  0.56589468  0.27462132  0.45239109     0.07900
C2259       C  0.58034524  0.30597240  0.45714662    -0.14200
C2260       C  0.60801765  0.31648681  0.44746971    -0.14200
C2261       C  0.62192981  0.29587508  0.43276838     0.07900
C2262       C  0.60663450  0.26509512  0.42736634    -0.14200
H2263       H  0.56793675  0.23001314  0.43347377     0.11900
H2264       H  0.57079598  0.32172601  0.46889505     0.11900
H2265       H  0.61901087  0.34045901  0.45192484     0.11900
H2266       H  0.61676731  0.24881040  0.41606209     0.11900
C2267       C  0.88327612  0.25264740  0.43792662    -0.14200
C2268       C  0.89705452  0.27292522  0.45271852     0.07900
C2269       C  0.88298627  0.30444256  0.45769781    -0.14200
C2270       C  0.85504338  0.31528093  0.44844209    -0.14200
C2271       C  0.84052603  0.29479543  0.43398629     0.07900
C2272       C  0.85515365  0.26359278  0.42854199    -0.14200
H2273       H  0.89364284  0.22795562  0.43417454     0.11900
H2274       H  0.89313326  0.32014161  0.46925478     0.11900
H2275       H  0.84445378  0.33949114  0.45292483     0.11900
H2276       H  0.84440480  0.24730485  0.41747864     0.11900
C2277       C  0.58629662  0.04989401  0.53945761    -0.14200
C2278       C  0.56801347  0.02239604  0.54635753     0.07900
C2279       C  0.57725450  0.00581135  0.56370704    -0.14200
C2280       C  0.60506075  0.01635201  0.57373892    -0.14200
C2281       C  0.62373454  0.04355981  0.56647224     0.07900
C2282       C  0.61371299  0.06034689  0.54935381    -0.14200
H2283       H  0.57963520  0.06284486  0.52606260     0.11900
H2284       H  0.56342739  0.98436181  0.56916772     0.11900
H2285       H  0.61211651  0.00310300  0.58694401     0.11900
H2286       H  0.62737501  0.08143767  0.54331635     0.11900
C2287       C  0.88719948  0.00714599  0.56363108    -0.14200
C2288       C  0.89910405  0.02725626  0.54822482     0.07900
C2289       C  0.88382599  0.05812610  0.54354935    -0.14200
C2290       C  0.85611577  0.06805262  0.55338838    -0.14200
C2291       C  0.84300786  0.04738338  0.56818535     0.07900
C2292       C  0.85927223  0.01725603  0.57365902    -0.14200
H2293       H  0.89869852  0.98305100  0.56727705     0.11900
H2294       H  0.89260683  0.07379503  0.53163420     0.11900
H2295       H  0.84426208  0.09141318  0.54881427     0.11900
H2296       H  0.84975939  0.00095699  0.58506253     0.11900
C2297       C  0.57167089  0.43578896  0.44813137    -0.14200
C2298       C  0.56346196  0.47051398  0.45022762     0.07900
C2299       C  0.58211838  0.49564640  0.44091759    -0.14200
C2300       C  0.60960280  0.48615043  0.43034012    -0.14200
C2301       C  0.61897602  0.45153392  0.42940115     0.07900
C2302       C  0.59933811  0.42640412  0.43794890    -0.14200
H2303       H  0.55769745  0.41615751  0.45539278     0.11900
H2304       H  0.57625103  0.52260661  0.44264131     0.11900
H2305       H  0.62455129  0.50592268  0.42399534     0.11900
H2306       H  0.60603205  0.39952142  0.43733801     0.11900
C2307       C  0.87676073  0.49858705  0.44423639    -0.14200
C2308       C  0.89671943  0.47315162  0.45218173     0.07900
C2309       C  0.88936484  0.43841958  0.44922070    -0.14200
C2310       C  0.86140349  0.42918842  0.43936888    -0.14200
C2311       C  0.84070592  0.45455395  0.43204714     0.07900
C2312       C  0.84901059  0.48930411  0.43398863    -0.14200
H2313       H  0.88198588  0.02551012  0.44669745     0.11900
H2314       H  0.90439548  0.41855995  0.45544889     0.11900
H2315       H  0.85544656  0.40220237  0.43795453     0.11900
H2316       H  0.83315314  0.00918416  0.42861131     0.11900
N2317       N  0.93285480  0.99939890  0.50033832    -0.37500
N2318       N  0.48074804  0.98518343  0.47040818    -0.58100
N2319       N  0.53031765  0.49589468  0.49947198    -0.37500
N2320       N  0.48256624  0.50707453  0.53014400    -0.58100
C2321       C  0.91396439  0.98674381  0.48593958     0.26100
C2322       C  0.91500564  0.50060233  0.51684904     0.26100
C2323       C  0.54814326  0.98326591  0.48451742     0.26100
C2324       C  0.54896049  0.49566565  0.51564753     0.26100
C2325       C  0.95441219  0.98402806  0.45897033     0.34700
C2326       C  0.50636758  0.98319708  0.45836274     0.34700
C2327       C  0.95717253  0.51921114  0.54037544     0.34700
C2328       C  0.50908465  0.51692585  0.54004637     0.34700
C2329       C  0.88362573  0.98011174  0.49342733    -0.22800
C2330       C  0.88424939  0.48903394  0.51286687    -0.22800
C2331       C  0.57857352  0.97511705  0.49132898    -0.22800
C2332       C  0.57905311  0.48289951  0.51091552    -0.22800
C2333       C  0.96329732  0.98120513  0.43948768    -0.23800
C2334       C  0.49627634  0.98071277  0.43910085    -0.23800
C2335       C  0.96752356  0.53600276  0.55711438    -0.23800
C2336       C  0.50047050  0.53456600  0.55690368    -0.23800
C2337       C  0.92260064  0.98251755  0.46600951    -0.19200
C2338       C  0.92477415  0.51454465  0.53502776    -0.19200
C2339       C  0.54093032  0.51009686  0.53406381    -0.19200
C2340       C  0.53850003  0.98037935  0.46468046    -0.19200
H2341       H  0.86294644  0.97031965  0.48565524     0.13700
H2342       H  0.86421504  0.48747844  0.52289886     0.13700
H2343       H  0.59866597  0.96518001  0.48301682     0.13700
H2344       H  0.59951091  0.48019500  0.52051979     0.13700
H2345       H  0.94766357  0.97892389  0.42692547     0.12000
H2346       H  0.51109087  0.97791183  0.42618594     0.12000
H2347       H  0.95288360  0.54819257  0.56823737     0.12000
H2348       H  0.51625321  0.54552309  0.56781737     0.12000
H2349       H  0.95538716  0.01055269  0.49854643     0.25300
H2350       H  0.50816724  0.50816463  0.49823872     0.25300
N2351       N  0.53045825  0.74725043  0.49985601    -0.37500
N2352       N  0.98177233  0.73373214  0.52916510    -0.58100
N2353       N  0.93312163  0.74483709  0.49949678    -0.37500
N2354       N  0.98172358  0.75525284  0.46940039    -0.58100
C2355       C  0.54907418  0.73540875  0.51461745     0.26100
C2356       C  0.54895862  0.74845483  0.48358887     0.26100
C2357       C  0.91490517  0.73164425  0.51403007     0.26100
C2358       C  0.91489780  0.74518261  0.48314816     0.26100
C2359       C  0.50762362  0.73274350  0.54101455     0.34700
C2360       C  0.95567546  0.73153446  0.54078132     0.34700
C2361       C  0.50757741  0.76612470  0.45923444     0.34700
C2362       C  0.95563919  0.76547133  0.45922324     0.34700
C2363       C  0.57984812  0.72945084  0.50759263    -0.22800
C2364       C  0.57976708  0.73772294  0.48810254    -0.22800
C2365       C  0.88472334  0.72366261  0.50674513    -0.22800
C2366       C  0.88470611  0.73233098  0.48732674    -0.22800
C2367       C  0.49791941  0.72978051  0.56032921    -0.23800
C2368       C  0.96495181  0.72905703  0.56018195    -0.23800
C2369       C  0.49790574  0.78211938  0.44215003    -0.23800
C2370       C  0.96492991  0.78176570  0.44216469    -0.23800
C2371       C  0.53971997  0.73115593  0.53445581    -0.19200
C2372       C  0.53977329  0.76176493  0.46516871    -0.19200
C2373       C  0.92358163  0.75988427  0.46505375    -0.19200
C2374       C  0.92386183  0.72853617  0.53395040    -0.19200
H2375       H  0.60052239  0.72060569  0.51569504     0.13700
H2376       H  0.60025018  0.73639500  0.47839408     0.13700
H2377       H  0.86443116  0.71336840  0.51464563     0.13700
H2378       H  0.86453436  0.72995732  0.47746983     0.13700
H2379       H  0.51300396  0.72752485  0.57312969     0.12000
H2380       H  0.94961995  0.72609702  0.57284090     0.12000
H2381       H  0.51301258  0.79327136  0.43098007     0.12000
H2382       H  0.94956716  0.79249507  0.43099300     0.12000
H2383       H  0.50772700  0.75775993  0.50122767     0.25300
H2384       H  0.95500562  0.75716610  0.50115929     0.25300
N2385       N  0.76926218  0.81089363  0.40717960    -0.07000
N2386       N  0.79499005  0.79144905  0.40977334    -0.59100
N2387       N  0.69465788  0.83556788  0.41943279    -0.06700
N2388       N  0.66945514  0.83385812  0.43094825    -0.61200
N2389       N  0.69402945  0.81108616  0.40617252    -0.06300
N2390       N  0.66801603  0.79190480  0.40852906    -0.59100
N2391       N  0.76849152  0.83570578  0.42024429    -0.06000
N2392       N  0.79344164  0.83382377  0.43196360    -0.61600
C2393       C  0.80979602  0.80613052  0.42536276     0.95200
C2394       C  0.65291549  0.80663334  0.42410461     0.95000
N2395       N  0.69329803  0.93818461  0.40520510    -0.07200
N2396       N  0.66656057  0.95648881  0.40670473    -0.59700
N2397       N  0.76781892  0.91505587  0.41967778    -0.05300
N2398       N  0.79314649  0.91686001  0.43107846    -0.61000
N2399       N  0.76831514  0.93958382  0.40653814    -0.07200
N2400       N  0.79412645  0.95894838  0.40888259    -0.60000
N2401       N  0.69369678  0.91395593  0.41851845    -0.04900
N2402       N  0.66734660  0.91477065  0.42910239    -0.61000
Mn2403     Mn  0.73128678  0.87518805  0.42002539     1.18400
C2404       C  0.65065723  0.94137125  0.42170564     0.97300
C2405       C  0.80926491  0.94433299  0.42429828     0.97900
N2406       N  0.69816403  0.80915135  0.35968007    -0.07200
N2407       N  0.68041801  0.78281170  0.35411139    -0.63500
N2408       N  0.77253169  0.83279308  0.34764747    -0.06000
N2409       N  0.79231293  0.82265129  0.33363027    -0.64200
N2410       N  0.77055757  0.80893216  0.36122397    -0.06700
N2411       N  0.78887993  0.78247927  0.35663219    -0.63800
N2412       N  0.70001350  0.83207229  0.34559264    -0.05600
N2413       N  0.68374463  0.82129117  0.33020770    -0.64500
Mn2414     Mn  0.73280573  0.80904793  0.38373449     1.10700
C2415       C  0.67131116  0.79068130  0.33571279     0.98500
C2416       C  0.80261001  0.79128374  0.33946535     0.98600
N2417       N  0.76965368  0.94085689  0.36039466    -0.06800
N2418       N  0.78729007  0.96766177  0.35562576    -0.62100
N2419       N  0.69866314  0.91473856  0.34529444    -0.06100
N2420       N  0.68004253  0.92320646  0.33045342    -0.58900
N2421       N  0.69711160  0.93855335  0.35900197    -0.07400
N2422       N  0.67745398  0.96339027  0.35371160    -0.61700
N2423       N  0.77174037  0.91681729  0.34681049    -0.06400
N2424       N  0.79099141  0.92723606  0.33257664    -0.58900
Mn2425     Mn  0.73201251  0.94034491  0.38299386     1.20200
Mn2426     Mn  0.73596679  0.87410154  0.34594991     1.10100
Cl2427     Cl  0.73308417  0.87465931  0.38303659    -0.86800
C2428       C  0.80090797  0.95891589  0.33836792     0.95500
C2429       C  0.66673566  0.95361493  0.33587048     0.95300
N2430       N  0.76906940  0.68856700  0.59382859    -0.07000
N2431       N  0.79535562  0.70730383  0.59164269    -0.59100
N2432       N  0.69437041  0.66344961  0.58136178    -0.06700
N2433       N  0.66860424  0.66458254  0.57030660    -0.61200
N2434       N  0.69371480  0.68795435  0.59463195    -0.06300
N2435       N  0.66727144  0.70663318  0.59269660    -0.59100
N2436       N  0.76842168  0.66381707  0.58072235    -0.06000
N2437       N  0.79399087  0.66488818  0.56947890    -0.61600
C2438       C  0.81057714  0.69207733  0.57632419     0.95200
C2439       C  0.65186205  0.69154127  0.57741801     0.95000
N2440       N  0.69434522  0.56039595  0.59430801    -0.07200
N2441       N  0.66847576  0.54099442  0.59174695    -0.59700
N2442       N  0.76886524  0.58486624  0.58084113    -0.05300
N2443       N  0.79439491  0.58380158  0.56958923    -0.61000
N2444       N  0.76997780  0.56054911  0.59408435    -0.07200
N2445       N  0.79668236  0.54229752  0.59205229    -0.60000
N2446       N  0.69513351  0.58469135  0.58106851    -0.04900
N2447       N  0.67032503  0.58253435  0.56931330    -0.61000
Mn2448     Mn  0.73171047  0.62422482  0.58046526     1.18400
C2449       C  0.65377608  0.55528075  0.57598175     0.97300
C2450       C  0.81160848  0.55724653  0.57660634     0.97900
N2451       N  0.69685016  0.68963080  0.64108302    -0.07200
N2452       N  0.67902184  0.71583291  0.64684341    -0.63500
N2453       N  0.77078561  0.66668221  0.65358954    -0.06000
N2454       N  0.79001094  0.67705635  0.66783062    -0.64200
N2455       N  0.76929262  0.69036371  0.63989074    -0.06700
N2456       N  0.78738968  0.71687347  0.64457600    -0.63800
N2457       N  0.69828229  0.66626284  0.65493680    -0.05600
N2458       N  0.68171744  0.67651733  0.67034941    -0.64500
Mn2459     Mn  0.73208657  0.69016196  0.61714168     1.10700
C2460       C  0.66952649  0.70736750  0.66510596     0.98500
C2461       C  0.80054692  0.70831500  0.66192569     0.98600
N2462       N  0.76926708  0.55888780  0.64025922    -0.06800
N2463       N  0.78714640  0.53239341  0.64529444    -0.62100
N2464       N  0.69754532  0.58394497  0.65433205    -0.06100
N2465       N  0.67788815  0.57535579  0.66864343    -0.58900
N2466       N  0.69676658  0.56041295  0.64044582    -0.07400
N2467       N  0.67665733  0.53567240  0.64505002    -0.61700
N2468       N  0.77057678  0.58298606  0.65383256    -0.06400
N2469       N  0.78950016  0.57303796  0.66828461    -0.58900
Mn2470     Mn  0.73254694  0.55893415  0.61710234     1.20200
Mn2471     Mn  0.73449025  0.62489673  0.65455816     1.10100
Cl2472     Cl  0.73274715  0.62456195  0.61744811    -0.86800
C2473       C  0.80008024  0.54155073  0.66266462     0.95500
C2474       C  0.66484069  0.54518599  0.66266729     0.95300
N2475       N  0.69188403  0.50287293  0.00017384    -0.37500
N2476       N  0.73961420  0.98727849  0.02960794    -0.58100
N2477       N  0.78933665  0.50009555  0.00065172    -0.37500
N2478       N  0.74166180  0.51294287  0.97051600    -0.58100
C2479       C  0.67310968  0.98874660  0.01416334     0.26100
C2480       C  0.67438513  0.50390771  0.98353611     0.26100
C2481       C  0.80738317  0.98744057  0.01541785     0.26100
C2482       C  0.80822656  0.50154003  0.98454893     0.26100
C2483       C  0.71328973  0.98512975  0.04106510     0.34700
C2484       C  0.76529249  0.98473356  0.04153704     0.34700
C2485       C  0.71616289  0.52545299  0.96068471     0.34700
C2486       C  0.76799634  0.52363245  0.96078285     0.34700
C2487       C  0.64329904  0.98098969  0.00629153    -0.22800
C2488       C  0.64408428  0.49065550  0.98701727    -0.22800
C2489       C  0.83819420  0.98099814  0.00855107    -0.22800
C2490       C  0.83868157  0.48982033  0.98914178    -0.22800
C2491       C  0.72223195  0.98092604  0.06041668    -0.23800
C2492       C  0.75521593  0.98067145  0.06071894    -0.23800
C2493       C  0.72624886  0.54349264  0.94437699    -0.23800
C2494       C  0.75919126  0.54229557  0.94442213    -0.23800
C2495       C  0.68145341  0.98402475  0.03405837    -0.19200
C2496       C  0.68393271  0.51934809  0.96579133    -0.19200
C2497       C  0.79983665  0.51635567  0.96637207    -0.19200
C2498       C  0.79753869  0.98308577  0.03516136    -0.19200
H2499       H  0.62288672  0.96982875  0.01368872     0.13700
H2500       H  0.62441449  0.48848350  0.97677750     0.13700
H2501       H  0.85857534  0.97158828  0.01671893     0.13700
H2502       H  0.85938256  0.48851996  0.97960422     0.13700
H2503       H  0.70664101  0.97760556  0.07292824     0.12000
H2504       H  0.77005536  0.97710215  0.07352669     0.12000
H2505       H  0.71143151  0.55614884  0.93359311     0.12000
H2506       H  0.77485003  0.55399447  0.93372588     0.12000
H2507       H  0.71368870  0.51508999  0.00237272     0.25300
H2508       H  0.76678311  0.51104112  0.00205973     0.25300
N2509       N  0.69151848  0.75004826  0.99914559    -0.37500
N2510       N  0.74057245  0.73960046  0.97014410    -0.58100
N2511       N  0.78811625  0.75179745  0.00015687    -0.37500
N2512       N  0.73897537  0.76191745  0.02961386    -0.58100
C2513       C  0.67394284  0.73617933  0.98447370     0.26100
C2514       C  0.67311518  0.74990278  0.01542867     0.26100
C2515       C  0.80633758  0.73769404  0.98584554     0.26100
C2516       C  0.80524725  0.75015271  0.01691967     0.26100
C2517       C  0.71495298  0.73917584  0.95812254     0.34700
C2518       C  0.76685941  0.74075341  0.95868784     0.34700
C2519       C  0.71269364  0.77442204  0.03871038     0.34700
C2520       C  0.76457177  0.77429512  0.03942520     0.34700
C2521       C  0.64401220  0.72693655  0.99162080    -0.22800
C2522       C  0.64345500  0.73574226  0.01110460    -0.22800
C2523       C  0.83538228  0.72695643  0.99367424    -0.22800
C2524       C  0.83468077  0.73487743  0.01327170    -0.22800
C2525       C  0.72494693  0.74021479  0.93880302    -0.23800
C2526       C  0.75796698  0.74128368  0.93916038    -0.23800
C2527       C  0.72156602  0.79452336  0.05459765    -0.23800
C2528       C  0.75460870  0.79442809  0.05505554    -0.23800
C2529       C  0.68310116  0.73442413  0.96451152    -0.19200
C2530       C  0.68098219  0.76609413  0.03334144    -0.19200
C2531       C  0.79658689  0.76606808  0.03474186    -0.19200
C2532       C  0.79837806  0.73652989  0.96571259    -0.19200
H2533       H  0.62414822  0.71608122  0.98352763     0.13700
H2534       H  0.62313358  0.73301206  0.02082513     0.13700
H2535       H  0.85543003  0.71541258  0.98602434     0.13700
H2536       H  0.85397439  0.73070804  0.02357091     0.13700
H2537       H  0.71007441  0.73929582  0.92585134     0.12000
H2538       H  0.77362620  0.74120051  0.92652922     0.12000
H2539       H  0.70589696  0.80765783  0.06481491     0.12000
H2540       H  0.76954172  0.80747988  0.06567374     0.12000
H2541       H  0.71297904  0.76340170  0.99760745     0.25300
H2542       H  0.76728508  0.76603356  0.99811186     0.25300
N2543       N  0.95210532  0.69086421  0.90639613    -0.07000
N2544       N  0.92581449  0.70963480  0.90840537    -0.59100
N2545       N  0.02741296  0.66799545  0.91942169    -0.06700
N2546       N  0.55365501  0.66956612  0.93006727    -0.61200
N2547       N  0.02709622  0.69255558  0.90631054    -0.06300
N2548       N  0.55322106  0.71174429  0.90795175    -0.59100
N2549       N  0.95289664  0.66653533  0.91962761    -0.06000
N2550       N  0.92711977  0.66779489  0.93074874    -0.61600
C2551       C  0.91051019  0.69479562  0.92367052     0.95200
C2552       C  0.56950250  0.69696242  0.92290035     0.95000
N2553       N  0.02940102  0.56419965  0.90682923    -0.07200
N2554       N  0.55570500  0.54550090  0.90924849    -0.59700
N2555       N  0.95484585  0.58771152  0.91989241    -0.05300
N2556       N  0.92985037  0.58605325  0.93152070    -0.61000
N2557       N  0.95408081  0.56309118  0.90669120    -0.07200
N2558       N  0.92806627  0.54396044  0.90918778    -0.60000
N2559       N  0.02829740  0.58893058  0.91993174    -0.04900
N2560       N  0.55342811  0.58774342  0.93148107    -0.61000
Mn2561     Mn  0.99089026  0.62784256  0.92028026     1.18400
C2562       C  0.57041121  0.56067411  0.92475325     0.97300
C2563       C  0.91324049  0.55880933  0.92482664     0.97900
N2564       N  0.52574133  0.69281526  0.86059126    -0.07200
N2565       N  0.54507848  0.71841893  0.85624629    -0.63500
N2566       N  0.95348907  0.66723579  0.84646269    -0.06000
N2567       N  0.93432266  0.67606294  0.83193923    -0.64200
N2568       N  0.95271843  0.69096577  0.86027192    -0.06700
N2569       N  0.93274890  0.71587918  0.85544259    -0.63800
N2570       N  0.52627464  0.66931172  0.84670620    -0.05600
N2571       N  0.54563810  0.67904783  0.83248908    -0.64500
Mn2572     Mn  0.98931110  0.69286406  0.88355653     1.10700
C2573       C  0.55760602  0.70954965  0.83873490     0.98500
C2574       C  0.92124685  0.70637973  0.83773714     0.98600
N2575       N  0.95615084  0.56061948  0.86015866    -0.06800
N2576       N  0.93796548  0.53428877  0.85509230    -0.62100
N2577       N  0.52888131  0.58666026  0.84707766    -0.06100
N2578       N  0.55008971  0.57882434  0.83339831    -0.58900
N2579       N  0.52917846  0.56315384  0.86087684    -0.07400
N2580       N  0.55081658  0.53934361  0.85693766    -0.61700
N2581       N  0.95606189  0.58403402  0.84629056    -0.06400
N2582       N  0.93808381  0.57367073  0.83150458    -0.58900
Mn2583     Mn  0.99208149  0.56155407  0.88378080     1.20200
Mn2584     Mn  0.99112226  0.62678754  0.84617314     1.10100
Cl2585     Cl  0.99073853  0.62721250  0.88332869    -0.86800
C2586       C  0.92656008  0.54277906  0.83724209     0.95500
C2587       C  0.56388730  0.54934922  0.83977603     0.95300
N2588       N  0.63494306  0.87787507  0.72491476    -0.37500
N2589       N  0.61845229  0.82598664  0.75367211    -0.58100
N2590       N  0.60767904  0.87921383  0.78313493    -0.37500
N2591       N  0.62361158  0.93145476  0.75435066    -0.58100
C2592       C  0.64741699  0.84943895  0.71625008     0.26100
C2593       C  0.64803619  0.90547112  0.71591550     0.26100
C2594       C  0.59244948  0.85250750  0.79164702     0.26100
C2595       C  0.59776051  0.90822455  0.79236789     0.26100
C2596       C  0.62611560  0.80466247  0.73870686     0.34700
C2597       C  0.60860389  0.80570890  0.76850116     0.34700
C2598       C  0.64043023  0.94923433  0.74090922     0.34700
C2599       C  0.62675375  0.94894369  0.77135378     0.34700
C2600       C  0.66904641  0.85904634  0.70190564    -0.22800
C2601       C  0.67003772  0.89429091  0.70203623    -0.22800
C2602       C  0.57286083  0.86462850  0.80656943    -0.22800
C2603       C  0.57598439  0.89983394  0.80691331    -0.22800
C2604       C  0.62064730  0.77083395  0.74399873    -0.23800
C2605       C  0.61041042  0.77143746  0.76294924    -0.23800
C2606       C  0.65613466  0.97655167  0.74979014    -0.23800
C2607       C  0.64658302  0.97703907  0.76895972    -0.23800
C2608       C  0.64008023  0.81490193  0.72081770    -0.19200
C2609       C  0.64214279  0.94041422  0.72084624    -0.19200
C2610       C  0.60930316  0.94167712  0.78844571    -0.19200
C2611       C  0.59598844  0.81742944  0.78655197    -0.19200
H2612       H  0.68356402  0.84234647  0.69279305     0.13700
H2613       H  0.68616545  0.90981751  0.69338370     0.13700
H2614       H  0.55753124  0.84967593  0.81605571     0.13700
H2615       H  0.56358075  0.91714654  0.81677103     0.13700
H2616       H  0.62407670  0.74781325  0.73533874     0.12000
H2617       H  0.60455665  0.74895329  0.77146452     0.12000
H2618       H  0.67316031  0.99404817  0.74325168     0.12000
H2619       H  0.65367462  0.99560426  0.77996170     0.12000
H2620       H  0.61641556  0.87860424  0.73511686     0.25300
H2621       H  0.62601053  0.87755595  0.77283170     0.25300
N2622       N  0.86511153  0.92749869  0.74994612    -0.37500
N2623       N  0.87880261  0.87471132  0.77880929    -0.58100
N2624       N  0.86322777  0.82249819  0.74996920    -0.37500
N2625       N  0.84643928  0.87533074  0.72198150    -0.58100
C2626       C  0.86598902  0.94584527  0.76678479     0.26100
C2627       C  0.84835862  0.94626653  0.73680786     0.26100
C2628       C  0.86327444  0.80423639  0.76677511     0.26100
C2629       C  0.84580375  0.80453650  0.73672653     0.26100
C2630       C  0.89237334  0.90232463  0.78753304     0.34700
C2631       C  0.89117981  0.84663618  0.78763229     0.34700
C2632       C  0.84784798  0.90314265  0.71022624     0.34700
C2633       C  0.84701004  0.84739334  0.71016494     0.34700
C2634       C  0.84936117  0.97641103  0.76441337    -0.22800
C2635       C  0.83809147  0.97661453  0.74550813    -0.22800
C2636       C  0.84537162  0.77456520  0.76428167    -0.22800
C2637       C  0.83421514  0.77481762  0.74533870    -0.22800
C2638       C  0.91369191  0.89175591  0.80184385    -0.23800
C2639       C  0.91291377  0.85644100  0.80192014    -0.23800
C2640       C  0.84983633  0.89285207  0.69083645    -0.23800
C2641       C  0.84938179  0.85749852  0.69079600    -0.23800
C2642       C  0.88373900  0.93676598  0.78359950    -0.19200
C2643       C  0.84410310  0.93741489  0.71688084    -0.19200
C2644       C  0.84226303  0.81331099  0.71674877    -0.19200
C2645       C  0.88119235  0.81257285  0.78370835    -0.19200
H2646       H  0.84595752  0.99661956  0.77514345     0.13700
H2647       H  0.82420385  0.99699654  0.73890726     0.13700
H2648       H  0.84101962  0.75465843  0.77495930     0.13700
H2649       H  0.81952700  0.75513320  0.73863701     0.13700
H2650       H  0.92814635  0.90775186  0.81133829     0.12000
H2651       H  0.92666642  0.83995681  0.81147290     0.12000
H2652       H  0.85100376  0.90910503  0.67805549     0.12000
H2653       H  0.85017700  0.84116856  0.67795652     0.12000
H2654       H  0.87842085  0.90553333  0.74694601     0.25300
H2655       H  0.87749491  0.84377610  0.74700967     0.25300
N2656       N  0.63965356  0.62194585  0.27368924    -0.37500
N2657       N  0.62778461  0.56973477  0.24407823    -0.58100
N2658       N  0.61173624  0.62371646  0.21572026    -0.37500
N2659       N  0.62297173  0.67552554  0.24552599    -0.58100
C2660       C  0.65213483  0.59403391  0.28277003     0.26100
C2661       C  0.65059018  0.65008116  0.28329340     0.26100
C2662       C  0.60098653  0.59498462  0.20662374     0.26100
C2663       C  0.59645845  0.65082025  0.20760697     0.26100
C2664       C  0.64524814  0.55147761  0.25701014     0.34700
C2665       C  0.63124991  0.55377608  0.22664281     0.34700
C2666       C  0.63149339  0.69607008  0.26065516     0.34700
C2667       C  0.61495106  0.69657039  0.23059254     0.34700
C2668       C  0.67231828  0.60483336  0.29769242    -0.22800
C2669       C  0.67067918  0.64002772  0.29835288    -0.22800
C2670       C  0.57846261  0.60388532  0.19261928    -0.22800
C2671       C  0.57580197  0.63916654  0.19313238    -0.22800
C2672       C  0.66168278  0.52540477  0.24737568    -0.23800
C2673       C  0.65194953  0.52616724  0.22822620    -0.23800
C2674       C  0.62876762  0.73025961  0.25529359    -0.23800
C2675       C  0.61921438  0.73056204  0.23618367    -0.23800
C2676       C  0.64709173  0.55918289  0.27722412    -0.19200
C2677       C  0.64345127  0.68475835  0.27891073    -0.19200
C2678       C  0.60117774  0.68581033  0.21262313    -0.19200
C2679       C  0.61277352  0.56142163  0.21003871    -0.19200
H2680       H  0.68759138  0.58912068  0.30680446     0.13700
H2681       H  0.68378409  0.65642792  0.30835574     0.13700
H2682       H  0.56541720  0.58688082  0.18293499     0.13700
H2683       H  0.56020720  0.65446628  0.18398803     0.13700
H2684       H  0.67949238  0.50814671  0.25334070     0.12000
H2685       H  0.65943086  0.50873946  0.21670943     0.12000
H2686       H  0.63367158  0.75286551  0.26403572     0.12000
H2687       H  0.61537742  0.75347915  0.22761302     0.12000
H2688       H  0.62228403  0.62170959  0.26279889     0.25300
H2689       H  0.63070066  0.62484002  0.22559777     0.25300
N2690       N  0.86542807  0.57357457  0.25106039    -0.37500
N2691       N  0.84637805  0.62573744  0.27852332    -0.58100
N2692       N  0.86175522  0.67838038  0.24986791    -0.37500
N2693       N  0.87761414  0.62620774  0.22144175    -0.58100
C2694       C  0.84898708  0.55478349  0.26432855     0.26100
C2695       C  0.86648391  0.55506357  0.23433338     0.26100
C2696       C  0.84434920  0.69613253  0.26320432     0.26100
C2697       C  0.86082000  0.69624661  0.23295189     0.26100
C2698       C  0.84838730  0.59828135  0.29052496     0.34700
C2699       C  0.84780424  0.65397739  0.29003499     0.34700
C2700       C  0.89165695  0.59859336  0.21298143     0.34700
C2701       C  0.88924875  0.65421436  0.21218717     0.34700
C2702       C  0.83908695  0.52420652  0.25578930    -0.22800
C2703       C  0.85037222  0.52426859  0.23688944    -0.22800
C2704       C  0.83158966  0.72528364  0.25453888    -0.22800
C2705       C  0.84211652  0.72540807  0.23542749    -0.22800
C2706       C  0.85155368  0.60906945  0.30974366    -0.23800
C2707       C  0.85142739  0.64440594  0.30942917    -0.23800
C2708       C  0.91239602  0.60904441  0.19831847    -0.23800
C2709       C  0.91092647  0.64433008  0.19784013    -0.23800
C2710       C  0.84470490  0.56385240  0.28422159    -0.19200
C2711       C  0.88388896  0.56415407  0.21741754    -0.19200
C2712       C  0.87892956  0.68824099  0.21603821    -0.19200
C2713       C  0.84213798  0.68779151  0.28329333    -0.19200
H2714       H  0.82542585  0.00377120  0.26247749     0.13700
H2715       H  0.84725511  0.00385671  0.22626393     0.13700
H2716       H  0.81667140  0.74472702  0.26133952     0.13700
H2717       H  0.83698201  0.74494448  0.22465381     0.13700
H2718       H  0.85347798  0.59316557  0.32263091     0.12000
H2719       H  0.85313980  0.66108942  0.32208368     0.12000
H2720       H  0.92693782  0.59296058  0.18887739     0.12000
H2721       H  0.92427010  0.66069035  0.18801886     0.12000
H2722       H  0.87856448  0.59592158  0.25386274     0.25300
H2723       H  0.87686577  0.65764850  0.25288191     0.25300
N2724       N  0.95066071  0.81323175  0.09421088    -0.07000
N2725       N  0.92422037  0.79468706  0.09199251    -0.59100
N2726       N  0.02492041  0.83608765  0.07971536    -0.06700
N2727       N  0.54911793  0.83362363  0.06748291    -0.61200
N2728       N  0.02596303  0.81151477  0.09279613    -0.06300
N2729       N  0.55142978  0.79171704  0.08969759    -0.59100
N2730       N  0.95158259  0.83770659  0.08106387    -0.06000
N2731       N  0.92619533  0.83657834  0.06974912    -0.61600
C2732       C  0.90925633  0.80974518  0.07658028     0.95200
C2733       C  0.56557689  0.80598058  0.07375490     0.95000
N2734       N  0.02708947  0.94003332  0.09358213    -0.07200
N2735       N  0.55285542  0.95940320  0.09114235    -0.59700
N2736       N  0.95244458  0.91627257  0.08141963    -0.05300
N2737       N  0.92671847  0.91785436  0.07039132    -0.61000
N2738       N  0.95201763  0.94048339  0.09485553    -0.07200
N2739       N  0.92567393  0.95939725  0.09309151    -0.60000
N2740       N  0.02636158  0.91548402  0.08035279    -0.04900
N2741       N  0.55150855  0.91731530  0.06874646    -0.61000
Mn2742     Mn  0.98893171  0.87640454  0.08014416     1.18400
C2743       C  0.56777508  0.94482974  0.07554876     0.97300
C2744       C  0.91017155  0.94474104  0.07769709     0.97900
N2745       N  0.52696237  0.81027318  0.13891043    -0.07200
N2746       N  0.54644446  0.78457591  0.14299471    -0.63500
N2747       N  0.95517450  0.83444586  0.15462297    -0.06000
N2748       N  0.93685281  0.82491587  0.16944372    -0.64200
N2749       N  0.95399523  0.81116940  0.14057595    -0.06700
N2750       N  0.93458505  0.78586847  0.14552488    -0.63800
N2751       N  0.52781259  0.83359111  0.15291449    -0.05600
N2752       N  0.54753796  0.82368888  0.16689004    -0.64500
Mn2753     Mn  0.98931986  0.81042809  0.11647500     1.10700
C2754       C  0.55932654  0.79319724  0.16045377     0.98500
C2755       C  0.92377286  0.79471626  0.16351324     0.98600
N2756       N  0.95562766  0.94115981  0.14115197    -0.06800
N2757       N  0.93664946  0.96676086  0.14635653    -0.62100
N2758       N  0.52922489  0.91636328  0.15315560    -0.06100
N2759       N  0.55092607  0.92435110  0.16649309    -0.58900
N2760       N  0.52869933  0.93994824  0.13940651    -0.07400
N2761       N  0.55028887  0.96389391  0.14298398    -0.61700
N2762       N  0.95636179  0.91757804  0.15491205    -0.06400
N2763       N  0.93817228  0.92712280  0.16980191    -0.58900
Mn2764     Mn  0.99072171  0.94154942  0.11713647     1.20200
Mn2765     Mn  0.99213210  0.87555375  0.15437459     1.10100
Cl2766     Cl  0.99023927  0.87596159  0.11716051    -0.86800
C2767       C  0.92566051  0.95766741  0.16419491     0.95500
C2768       C  0.56419624  0.95393853  0.15988645     0.95300
C2769       C  0.91212004  0.50852206  0.21064289    -0.14200
C2770       C  0.89380277  0.53626912  0.20377812     0.07900
C2771       C  0.88459154  0.53700001  0.18405372    -0.14200
C2772       C  0.89439206  0.01092956  0.17125967    -0.14200
C2773       C  0.91291006  0.98333362  0.17808767     0.07900
C2774       C  0.92135980  0.48210165  0.19794201    -0.14200
H2775       H  0.91947249  0.50752387  0.22581956     0.11900
H2776       H  0.87008068  0.55793365  0.17855372     0.11900
H2777       H  0.88766391  0.01238448  0.15599144     0.11900
H2778       H  0.93600900  0.46134202  0.20351107     0.11900
C2779       C  0.88271112  0.71430657  0.18226959    -0.14200
C2780       C  0.88820844  0.71669779  0.20250982     0.07900
C2781       C  0.90355543  0.74615983  0.20991385    -0.14200
C2782       C  0.91389114  0.77223102  0.19735766    -0.14200
C2783       C  0.90956081  0.76918554  0.17705338     0.07900
C2784       C  0.89361160  0.74008582  0.16965851    -0.14200
H2785       H  0.87056089  0.69212570  0.17619436     0.11900
H2786       H  0.90819341  0.74862044  0.22543841     0.11900
H2787       H  0.92632343  0.79417028  0.20349454     0.11900
H2788       H  0.88990099  0.73708835  0.15407175     0.11900
C2789       C  0.57783857  0.97653729  0.19308059    -0.14200
C2790       C  0.58089170  0.97880690  0.17269812     0.07900
C2791       C  0.59679698  0.50726999  0.16461678    -0.14200
C2792       C  0.60820037  0.53372263  0.17668378    -0.14200
C2793       C  0.60334805  0.53238323  0.19698454     0.07900
C2794       C  0.58867716  0.50320292  0.20507315    -0.14200
H2795       H  0.56557514  0.95502066  0.19971450     0.11900
H2796       H  0.59962132  0.50947089  0.14892605     0.11900
H2797       H  0.61999607  0.55565130  0.17016655     0.11900
H2798       H  0.58473756  0.50154663  0.22070120     0.11900
C2799       C  0.60214841  0.71477980  0.17981439    -0.14200
C2800       C  0.58954338  0.71267493  0.19884178     0.07900
C2801       C  0.56676856  0.73707724  0.20497462    -0.14200
C2802       C  0.55816485  0.76420938  0.19278313    -0.14200
C2803       C  0.57100221  0.76652651  0.17386950     0.07900
C2804       C  0.59257159  0.74126953  0.16731189    -0.14200
H2805       H  0.61952272  0.69604964  0.17472800     0.11900
H2806       H  0.55622822  0.73552338  0.21942605     0.11900
H2807       H  0.54076352  0.78284198  0.19795136     0.11900
H2808       H  0.60218534  0.74226098  0.15260391     0.11900
C2809       C  0.57547330  0.02677807  0.80626444    -0.14200
C2810       C  0.57982947  0.52448765  0.82655984     0.07900
C2811       C  0.59630293  0.49602694  0.83421999    -0.14200
C2812       C  0.60700088  0.96959687  0.82185959    -0.14200
C2813       C  0.60081774  0.97090406  0.80168946     0.07900
C2814       C  0.58557040  0.00010721  0.79399028    -0.14200
H2815       H  0.56273855  0.04830292  0.79994968     0.11900
H2816       H  0.60011490  0.49380104  0.84982819     0.11900
H2817       H  0.61923259  0.44765257  0.82807754     0.11900
H2818       H  0.58058567  0.00176609  0.77847958     0.11900
C2819       C  0.59333441  0.75847176  0.83034365    -0.14200
C2820       C  0.56826411  0.73626501  0.82515954     0.07900
C2821       C  0.55100139  0.74210864  0.80789877    -0.14200
C2822       C  0.55885052  0.76971148  0.79587672    -0.14200
C2823       C  0.58478316  0.79111808  0.80061610     0.07900
C2824       C  0.60183669  0.78551931  0.81799432    -0.14200
H2825       H  0.60644042  0.75465846  0.84383078     0.11900
H2826       H  0.53097102  0.72580081  0.80396178     0.11900
H2827       H  0.54537716  0.77382802  0.78255502     0.11900
H2828       H  0.62194740  0.80179520  0.82181354     0.11900
C2829       C  0.89679450  0.48821291  0.83039721    -0.14200
C2830       C  0.91381303  0.51679783  0.82344479     0.07900
C2831       C  0.92030311  0.51923243  0.80333721    -0.14200
C2832       C  0.91057513  0.99322150  0.79049766    -0.14200
C2833       C  0.89363669  0.96455716  0.79742799     0.07900
C2834       C  0.88641254  0.96255128  0.81746912    -0.14200
H2835       H  0.89155406  0.48573539  0.84584167     0.11900
H2836       H  0.93374904  0.54074055  0.79760205     0.11900
H2837       H  0.91656062  0.99526063  0.77512889     0.11900
H2838       H  0.87305747  0.94090385  0.82312065     0.11900
C2839       C  0.91423482  0.72862520  0.80368339    -0.14200
C2840       C  0.90818991  0.73191583  0.82381919     0.07900
C2841       C  0.89215862  0.76140369  0.83068355    -0.14200
C2842       C  0.88275495  0.78727498  0.81768857    -0.14200
C2843       C  0.88978813  0.78448340  0.79762638     0.07900
C2844       C  0.90540507  0.75475230  0.79077158    -0.14200
H2845       H  0.92687967  0.70642517  0.79797184     0.11900
H2846       H  0.88724316  0.76460953  0.84613984     0.11900
H2847       H  0.87041313  0.80974086  0.82331941     0.11900
H2848       H  0.91123644  0.75202719  0.77540410     0.11900
C2849       C  0.64104650  0.75596848  0.06031718    -0.14200
C2850       C  0.65404324  0.77746627  0.04588780     0.07900
C2851       C  0.63884361  0.80848428  0.04148515    -0.14200
C2852       C  0.61050708  0.81761265  0.05091488    -0.14200
C2853       C  0.59670340  0.79593553  0.06501769     0.07900
C2854       C  0.61248665  0.76521808  0.06991508    -0.14200
H2855       H  0.65239076  0.73163037  0.06361508     0.11900
H2856       H  0.64840844  0.82510664  0.03023166     0.11900
H2857       H  0.59908152  0.84152489  0.04682897     0.11900
H2858       H  0.60233986  0.74804997  0.08068404     0.11900
C2859       C  0.83881394  0.80848118  0.04219097    -0.14200
C2860       C  0.82295941  0.77830232  0.04745501     0.07900
C2861       C  0.83459281  0.75866040  0.06313441    -0.14200
C2862       C  0.86237301  0.76899827  0.07318317    -0.14200
C2863       C  0.87871402  0.79891051  0.06749842     0.07900
C2864       C  0.86630529  0.81869956  0.05208821    -0.14200
H2865       H  0.83036656  0.82362606  0.02996932     0.11900
H2866       H  0.82278734  0.73494566  0.06714083     0.11900
H2867       H  0.87147905  0.75327438  0.08496660     0.11900
H2868       H  0.87827454  0.84184716  0.04728739     0.11900
C2869       C  0.63881555  0.75060086  0.94150146    -0.14200
C2870       C  0.65805013  0.72509453  0.95004235     0.07900
C2871       C  0.65016670  0.69043683  0.94728474    -0.14200
C2872       C  0.62211069  0.68145746  0.93741339    -0.14200
C2873       C  0.60167441  0.70692989  0.92991167     0.07900
C2874       C  0.61088444  0.74154200  0.93128075    -0.14200
H2875       H  0.64451612  0.77749107  0.94365972     0.11900
H2876       H  0.66465465  0.67046750  0.95386435     0.11900
H2877       H  0.61569074  0.65457144  0.93631378     0.11900
H2878       H  0.59545908  0.76158451  0.92564233     0.11900
C2879       C  0.84292180  0.75066014  0.94245671    -0.14200
C2880       C  0.82380882  0.72605358  0.95182909     0.07900
C2881       C  0.83147740  0.69113631  0.95007471    -0.14200
C2882       C  0.85920229  0.68100102  0.94023040    -0.14200
C2883       C  0.87926138  0.70559503  0.93159879     0.07900
C2884       C  0.87038104  0.74039958  0.93213917    -0.14200
H2885       H  0.83732048  0.77774569  0.94383593     0.11900
H2886       H  0.81696207  0.67193979  0.95731981     0.11900
H2887       H  0.86546811  0.65398349  0.93983072     0.11900
H2888       H  0.88560801  0.75972487  0.92559470     0.11900
C2889       C  0.63559208  0.99953133  0.05622355    -0.14200
C2890       C  0.65536991  0.97429962  0.04772469     0.07900
C2891       C  0.64772914  0.93952860  0.05007281    -0.14200
C2892       C  0.61969030  0.93009430  0.05979976    -0.14200
C2893       C  0.59915615  0.95524825  0.06765594     0.07900
C2894       C  0.60778098  0.99001750  0.06638066    -0.14200
H2895       H  0.64104295  0.02651104  0.05431750     0.11900
H2896       H  0.66263122  0.91980815  0.04348047     0.11900
H2897       H  0.61360462  0.90310297  0.06075626     0.11900
H2898       H  0.59216563  0.00979016  0.07225623     0.11900
C2899       C  0.83887697  0.99740062  0.06074892    -0.14200
C2900       C  0.82255450  0.97279584  0.04941459     0.07900
C2901       C  0.83299070  0.93862385  0.04951455    -0.14200
C2902       C  0.86070485  0.92955714  0.05959010    -0.14200
C2903       C  0.87830159  0.95435354  0.07004068     0.07900
C2904       C  0.86653600  0.98813057  0.07120224    -0.14200
H2905       H  0.83109558  0.52395780  0.06072693     0.11900
H2906       H  0.82075153  0.91940746  0.04078288     0.11900
H2907       H  0.86904636  0.90324736  0.05860165     0.11900
H2908       H  0.87968985  0.00764644  0.07916640     0.11900
C2909       C  0.64372672  0.56323480  0.95681190    -0.14200
C2910       C  0.65817087  0.53159335  0.95270500     0.07900
C2911       C  0.64534086  0.51031159  0.93804329    -0.14200
C2912       C  0.61725052  0.52003920  0.92821700    -0.14200
C2913       C  0.60179606  0.55101881  0.93311626     0.07900
C2914       C  0.61583239  0.57285423  0.94713104    -0.14200
H2915       H  0.65332151  0.57981472  0.96814708     0.11900
H2916       H  0.65623848  0.98562934  0.93487837     0.11900
H2917       H  0.60698735  0.00284380  0.91742812     0.11900
H2918       H  0.60467613  0.59701600  0.95113614     0.11900
C2919       C  0.84218627  0.55871651  0.95887921    -0.14200
C2920       C  0.82647425  0.52831141  0.95374107     0.07900
C2921       C  0.83801716  0.50851540  0.93798290    -0.14200
C2922       C  0.86589971  0.51858095  0.92796128    -0.14200
C2923       C  0.88238316  0.54843524  0.93371052     0.07900
C2924       C  0.86974822  0.56870473  0.94898137    -0.14200
H2925       H  0.83358473  0.57420584  0.97100708     0.11900
H2926       H  0.82607532  0.48486184  0.93390665     0.11900
H2927       H  0.87500349  0.50265786  0.91617398     0.11900
H2928       H  0.88161550  0.59204183  0.95369373     0.11900
C2929       C  0.64939867  0.98508126  0.67103859    -0.14200
C2930       C  0.65232147  0.51963458  0.67657166     0.07900
C2931       C  0.64554326  0.52888139  0.69590255    -0.14200
C2932       C  0.63964494  0.50359940  0.70986110    -0.14200
C2933       C  0.64285562  0.96822691  0.70523701     0.07900
C2934       C  0.64384730  0.95988692  0.68509360    -0.14200
H2935       H  0.65240369  0.97728367  0.65592378     0.11900
H2936       H  0.64541813  0.55563248  0.70034676     0.11900
H2937       H  0.63251648  0.51252699  0.72413645     0.11900
H2938       H  0.64051681  0.93395794  0.67985775     0.11900
C2939       C  0.67689688  0.73508661  0.69778290    -0.14200
C2940       C  0.66131533  0.73411005  0.67957977     0.07900
C2941       C  0.63992090  0.76051237  0.67466910    -0.14200
C2942       C  0.63335904  0.78693891  0.68801412    -0.14200
C2943       C  0.64866234  0.78775611  0.70628681     0.07900
C2944       C  0.67107500  0.76205416  0.71087326    -0.14200
H2945       H  0.69416165  0.71547290  0.70169019     0.11900
H2946       H  0.62810369  0.76048964  0.66057167     0.11900
H2947       H  0.61616191  0.80666154  0.68417300     0.11900
H2948       H  0.68351335  0.76255029  0.72476963     0.11900
C2949       C  0.83838088  0.02165129  0.68857028    -0.14200
C2950       C  0.81151518  0.51557041  0.67673423     0.07900
C2951       C  0.79535422  0.48406040  0.67826378    -0.14200
C2952       C  0.80586487  0.95897827  0.69133608    -0.14200
C2953       C  0.83327602  0.96445130  0.70284128     0.07900
C2954       C  0.84948756  0.99608097  0.70130857    -0.14200
H2955       H  0.85110244  0.04583481  0.68765419     0.11900
H2956       H  0.77422304  0.47902068  0.66951605     0.11900
H2957       H  0.79251278  0.93522143  0.69250975     0.11900
H2958       H  0.87064958  0.00099198  0.71004500     0.11900
C2959       C  0.80581411  0.79206120  0.68995185    -0.14200
C2960       C  0.83193298  0.78620437  0.70247566     0.07900
C2961       C  0.84772830  0.75420539  0.70154057    -0.14200
C2962       C  0.83738465  0.72856908  0.68852769    -0.14200
C2963       C  0.81173980  0.73488641  0.67580556     0.07900
C2964       C  0.79617170  0.76690989  0.67656034    -0.14200
H2965       H  0.79280193  0.81614868  0.69056920     0.11900
H2966       H  0.86798564  0.74902758  0.71097925     0.11900
H2967       H  0.84967914  0.70404253  0.68817796     0.11900
H2968       H  0.77600501  0.77222582  0.66706625     0.11900
C2969       C  0.65152099  0.96996507  0.30174303    -0.14200
C2970       C  0.65516221  0.97899056  0.32143976     0.07900
C2971       C  0.65012861  0.51328711  0.32693195    -0.14200
C2972       C  0.64538421  0.53851841  0.31275124    -0.14200
C2973       C  0.64749340  0.53072491  0.29254572     0.07900
C2974       C  0.64682922  0.99532221  0.28759207    -0.14200
H2975       H  0.65307243  0.94333297  0.29716639     0.11900
H2976       H  0.65071131  0.52087222  0.34218497     0.11900
H2977       H  0.64015660  0.56414261  0.31794101     0.11900
H2978       H  0.64245815  0.98630699  0.27296266     0.11900
C2979       C  0.68296372  0.76002574  0.30451370    -0.14200
C2980       C  0.66399506  0.76346019  0.32138637     0.07900
C2981       C  0.63937441  0.73971514  0.32485703    -0.14200
C2982       C  0.63279488  0.71391515  0.31108781    -0.14200
C2983       C  0.65126590  0.71116029  0.29395023     0.07900
C2984       C  0.67690890  0.73381664  0.29103479    -0.14200
H2985       H  0.70276624  0.77738476  0.30187783     0.11900
H2986       H  0.62494995  0.74155158  0.33800230     0.11900
H2987       H  0.61316801  0.69630260  0.31366791     0.11900
H2988       H  0.69179788  0.73155932  0.27810433     0.11900
C2989       C  0.85013419  0.50493453  0.29964053    -0.14200
C2990       C  0.83434257  0.53693234  0.29854007     0.07900
C2991       C  0.80764477  0.54272865  0.31066669    -0.14200
C2992       C  0.79722438  0.01746293  0.32368864    -0.14200
C2993       C  0.81266059  0.98536703  0.32455835     0.07900
C2994       C  0.83904797  0.97917896  0.31228617    -0.14200
H2995       H  0.87086703  0.49977349  0.29053793     0.11900
H2996       H  0.79462510  0.56679025  0.30993495     0.11900
H2997       H  0.77656646  0.02277882  0.33283164     0.11900
H2998       H  0.85136538  0.95467908  0.31272382     0.11900
C2999       C  0.83773758  0.77218951  0.31173539    -0.14200
C3000       C  0.81354836  0.76498602  0.32536349     0.07900
C3001       C  0.79848946  0.73274279  0.32489755    -0.14200
C3002       C  0.80723103  0.70821821  0.31094459    -0.14200
C3003       C  0.83210486  0.71482567  0.29762536     0.07900
C3004       C  0.84731201  0.74710078  0.29815856    -0.14200
H3005       H  0.84944877  0.79701225  0.31177549     0.11900
H3006       H  0.77930388  0.72679401  0.33501489     0.11900
H3007       H  0.79462388  0.68390664  0.31060006     0.11900
H3008       H  0.86656738  0.75285064  0.28805754     0.11900
C3009       C  0.58131961  0.74499124  0.56001404    -0.14200
C3010       C  0.56491684  0.72063457  0.54856673     0.07900
C3011       C  0.57503537  0.68632693  0.54868693    -0.14200
C3012       C  0.60252767  0.67686991  0.55891098    -0.14200
C3013       C  0.62022335  0.70144163  0.56946797     0.07900
C3014       C  0.60873766  0.73535467  0.57059449    -0.14200
H3015       H  0.57373436  0.77161444  0.56004360     0.11900
H3016       H  0.56263382  0.66725584  0.53993953     0.11900
H3017       H  0.61059783  0.65043708  0.55798261     0.11900
H3018       H  0.62192096  0.75469717  0.57867671     0.11900
C3019       C  0.88096339  0.74434317  0.55812968    -0.14200
C3020       C  0.89838873  0.71895657  0.54801906     0.07900
C3021       C  0.88878818  0.68458672  0.54919301    -0.14200
C3022       C  0.86090280  0.67594914  0.55925083    -0.14200
C3023       C  0.84237306  0.70141441  0.56854675     0.07900
C3024       C  0.85318445  0.73555020  0.56854364    -0.14200
H3025       H  0.88806011  0.77104382  0.55719883     0.11900
H3026       H  0.90189028  0.66477107  0.54137030     0.11900
H3027       H  0.85321986  0.64941649  0.55923224     0.11900
H3028       H  0.83922105  0.75557980  0.57557152     0.11900
C3029       C  0.57875809  0.75445583  0.43718990    -0.14200
C3030       C  0.56589549  0.77462011  0.45239111     0.07900
C3031       C  0.58034579  0.80597133  0.45714670    -0.14200
C3032       C  0.60801763  0.81648650  0.44746944    -0.14200
C3033       C  0.62192955  0.79587532  0.43276779     0.07900
C3034       C  0.60663433  0.76509539  0.42736562    -0.14200
H3035       H  0.56793714  0.73001279  0.43347311     0.11900
H3036       H  0.57079669  0.82172457  0.46889535     0.11900
H3037       H  0.61901063  0.84045883  0.45192455     0.11900
H3038       H  0.61676686  0.74881121  0.41606103     0.11900
C3039       C  0.88327645  0.75264434  0.43792533    -0.14200
C3040       C  0.89705538  0.77292215  0.45271708     0.07900
C3041       C  0.88298719  0.80443940  0.45769657    -0.14200
C3042       C  0.85504382  0.81527759  0.44844138    -0.14200
C3043       C  0.84052593  0.79479221  0.43398579     0.07900
C3044       C  0.85515354  0.76358968  0.42854114    -0.14200
H3045       H  0.89364302  0.72795257  0.43417311     0.11900
H3046       H  0.89313448  0.82013841  0.46925346     0.11900
H3047       H  0.84445427  0.83948765  0.45292441     0.11900
H3048       H  0.84440430  0.74730180  0.41747791     0.11900
C3049       C  0.58630041  0.54989091  0.53945431    -0.14200
C3050       C  0.56801340  0.52239739  0.54635629     0.07900
C3051       C  0.57725136  0.50581640  0.56370759    -0.14200
C3052       C  0.60505813  0.51635627  0.57373921    -0.14200
C3053       C  0.62373558  0.54355955  0.56647055     0.07900
C3054       C  0.61371737  0.56034285  0.54935022    -0.14200
H3055       H  0.57964152  0.56283890  0.52605794     0.11900
H3056       H  0.56342137  0.48437033  0.56916996     0.11900
H3057       H  0.61211121  0.50311038  0.58694586     0.11900
H3058       H  0.62738237  0.58143001  0.54331114     0.11900
C3059       C  0.88719781  0.50714408  0.56363084    -0.14200
C3060       C  0.89910373  0.52725580  0.54822557     0.07900
C3061       C  0.88382759  0.55812739  0.54355151    -0.14200
C3062       C  0.85611759  0.56805408  0.55339073    -0.14200
C3063       C  0.84300807  0.54738340  0.56818650     0.07900
C3064       C  0.85927081  0.51725436  0.57365899    -0.14200
H3065       H  0.89869551  0.48304786  0.56727578     0.11900
H3066       H  0.89260959  0.57379759  0.53163722     0.11900
H3067       H  0.84426513  0.59141588  0.54881754     0.11900
H3068       H  0.84975672  0.50095417  0.58506159     0.11900
C3069       C  0.57166995  0.93578648  0.44812891    -0.14200
C3070       C  0.56346415  0.97051173  0.45022864     0.07900
C3071       C  0.58212247  0.99564510  0.44092086    -0.14200
C3072       C  0.60960574  0.98614965  0.43034218    -0.14200
C3073       C  0.61897594  0.95153251  0.42939973     0.07900
C3074       C  0.59933600  0.92640198  0.43794509    -0.14200
H3075       H  0.55769481  0.91615420  0.45538838     0.11900
H3076       H  0.57625742  0.02260539  0.44264720     0.11900
H3077       H  0.62455592  0.00592238  0.42399936     0.11900
H3078       H  0.60602773  0.89951880  0.43733144     0.11900
C3079       C  0.87676392  0.99858577  0.44423520    -0.14200
C3080       C  0.89672171  0.97315066  0.45218167     0.07900
C3081       C  0.88936546  0.93841854  0.44922265    -0.14200
C3082       C  0.86140349  0.92918711  0.43937160    -0.14200
C3083       C  0.84070700  0.95455243  0.43204850     0.07900
C3084       C  0.84901321  0.98930252  0.43398811    -0.14200
H3085       H  0.88198155  0.52551127  0.44670000     0.11900
H3086       H  0.90439525  0.91855925  0.45545195     0.11900
H3087       H  0.85544541  0.90220112  0.43795879     0.11900
H3088       H  0.83314965  0.50918585  0.42861289     0.11900
loop_ 
_geom_bond_atom_site_label_1 
_geom_bond_atom_site_label_2 
_geom_bond_distance 
_geom_bond_site_symmetry_2 
_ccdc_geom_bond_type 
N1           H33   1.043       .  S
N1            C5   1.353       .  A
N1          C778   1.352       .  A
N2           C10   1.350   1_655  A
N2         C1553   1.350       .  A
N3           H34   1.043   1_565  S
N3            C8   1.353       .  A
N3          C779   1.354       .  A
N4           C12   1.352   1_655  A
N4         C1555   1.352       .  A
C5           C13   1.389       .  A
C5           C21   1.418       .  A
C6          N773   1.352   1_545  A
C6           C22   1.415       .  A
C6           C14   1.387   1_545  A
C7          N775   1.354       .  A
C7           C15   1.389       .  A
C7           C24   1.419       .  A
C8           C23   1.416   1_565  A
C8           C16   1.387       .  A
C9         N1546   1.350       .  A
C9           C21   1.412       .  A
C9           C17   1.386       .  A
C10          C24   1.413       .  A
C10          C18   1.386   1_455  A
C11        N1548   1.352       .  A
C11          C19   1.385       .  A
C11          C22   1.412       .  A
C12          C20   1.386       .  A
C12          C23   1.414       .  A
C13         C786   1.373       .  A
C13          H25   1.082       .  S
C14         C785   1.373       .  A
C14          H26   1.082       .  S
C15         C788   1.372       .  A
C15          H27   1.082       .  S
C16         C787   1.372       .  A
C16          H28   1.083       .  S
C17        C1562   1.376       .  A
C17          H29   1.082       .  S
C18        C1561   1.376       .  A
C18          H30   1.082   1_655  S
C19        C1564   1.375       .  A
C19          H31   1.082       .  S
C20        C1563   1.375   1_455  A
C20          H32   1.082       .  S
C21         C764   1.481       .  S
C22         C744   1.483       .  S
C23         C734   1.487       .  S
C24         C754   1.484       .  S
N35          H67   1.036       .  S
N35          C40   1.354       .  A
N35          C39   1.356       .  A
N36          C44   1.350       .  A
N36        C1587   1.350       .  A
N37          H68   1.038       .  S
N37          C42   1.353       .  A
N37          C41   1.354       .  A
N38          C46   1.352       .  A
N38        C1589   1.352       .  A
C39          C47   1.389       .  A
C39          C55   1.422       .  A
C40          C56   1.417       .  A
C40          C48   1.386       .  A
C41          C49   1.389       .  A
C41          C58   1.419       .  A
C42          C57   1.413       .  A
C42          C50   1.385       .  A
C43        N1580   1.350   1_455  A
C43          C55   1.412       .  A
C43          C51   1.386   1_455  A
C44          C58   1.412       .  A
C44          C52   1.386       .  A
C45        N1582   1.352   1_455  A
C45          C53   1.386   1_455  A
C45          C56   1.413       .  A
C46          C54   1.385       .  A
C46          C57   1.412       .  A
C47          C48   1.373       .  A
C47          H59   1.082       .  S
C48          H60   1.082       .  S
C49          C50   1.372       .  A
C49          H61   1.082       .  S
C50          H62   1.082       .  S
C51        C1596   1.375       .  A
C51          H63   1.082   1_655  S
C52        C1595   1.375       .  A
C52          H64   1.082       .  S
C53        C1598   1.375       .  A
C53          H65   1.082   1_655  S
C54        C1597   1.375       .  A
C54          H66   1.082       .  S
C55         C694   1.486       .  S
C56         C714   1.485       .  S
C57         C724   1.482       .  S
C58         C704   1.482       .  S
N69          N70   1.325       .  A
N69          N75   1.313       .  A
N69         Mn98   2.212       .  S
N70          C77   1.357       .  A
N71          N73   1.313       .  A
N71          N72   1.315       .  A
N71         Mn87   2.172       .  S
N72          C78   1.347       .  A
N73          N74   1.328       .  A
N73         Mn98   2.229       .  S
N74          C78   1.361       .  A
N75          N76   1.316       .  A
N75         Mn87   2.182       .  S
N76          C77   1.350       .  A
C77         C727   1.479       .  S
C78         C717   1.483       .  S
N79          N85   1.314       .  A
N79          N80   1.326       .  A
N79        Mn109   2.218       .  S
N80          C88   1.358       .  A
N81          N82   1.315       .  A
N81          N83   1.314       .  A
N81         Mn87   2.176       .  S
N82          C89   1.347       .  A
N83          N84   1.324       .  A
N83        Mn109   2.211       .  S
N84          C89   1.356       .  A
N85          N86   1.316       .  A
N85         Mn87   2.177       .  S
N86          C88   1.347       .  A
Mn87       Cl111   2.531       .  S
C88         C757   1.475       .  S
C89         C767   1.470       .  S
N90          N91   1.320       .  A
N90          N96   1.318       .  A
N90         Mn98   2.190       .  S
N91          C99   1.351       .  A
N92          N94   1.319       .  A
N92          N93   1.323       .  A
N92        Mn110   2.218       .  S
N93         C100   1.355       .  A
N94          N95   1.318       .  A
N94         Mn98   2.201       .  S
N95         C100   1.351       .  A
N96          N97   1.320       .  A
N96        Mn110   2.220       .  S
N97          C99   1.355       .  A
Mn98       Cl111   2.554       .  S
C99         C664   1.472       .  S
C100        C684   1.475       .  S
N101        N102   1.319       .  A
N101        N107   1.318       .  A
N101       Mn109   2.202       .  S
N102        C112   1.351       .  A
N103        N104   1.321       .  A
N103        N105   1.317       .  A
N103       Mn110   2.217       .  S
N104        C113   1.356       .  A
N105        N106   1.319       .  A
N105       Mn109   2.195       .  S
N106        C113   1.353       .  A
N107        N108   1.326       .  A
N107       Mn110   2.236       .  S
N108        C112   1.358       .  A
Mn109      Cl111   2.557       .  S
Mn110      Cl111   2.539       .  S
C112        C677   1.483       .  S
C113        C654   1.480       .  S
N114        N115   1.326       .  A
N114        N120   1.313       .  A
N114       Mn143   2.218       .  S
N115        C122   1.358       .  A
N116        N118   1.314       .  A
N116        N117   1.315       .  A
N116       Mn132   2.180       .  S
N117        C123   1.348       .  A
N118        N119   1.327       .  A
N118       Mn143   2.223       .  S
N119        C123   1.359       .  A
N120        N121   1.315       .  A
N120       Mn132   2.174       .  S
N121        C122   1.347       .  A
C122        C707   1.475       .  S
C123        C697   1.479       .  S
N124        N130   1.312       .  A
N124        N125   1.329       .  A
N124       Mn154   2.231       .  S
N125        C133   1.361       .  A
N126        N127   1.314       .  A
N126        N128   1.314       .  A
N126       Mn132   2.178       .  S
N127        C134   1.348       .  A
N128        N129   1.327       .  A
N128       Mn154   2.217       .  S
N129        C134   1.359       .  A
N130        N131   1.313       .  A
N130       Mn132   2.169       .  S
N131        C133   1.347       .  A
Mn132      Cl156   2.529       .  S
C133        C737   1.484       .  S
C134        C747   1.479       .  S
N135        N136   1.320       .  A
N135        N141   1.317       .  A
N135       Mn143   2.199       .  S
N136        C144   1.352       .  A
N137        N139   1.318       .  A
N137        N138   1.324       .  A
N137       Mn155   2.224       .  S
N138        C145   1.357       .  A
N139        N140   1.318       .  A
N139       Mn143   2.198       .  S
N140        C145   1.351       .  A
N141        N142   1.320       .  A
N141       Mn155   2.206       .  S
N142        C144   1.353       .  A
Mn143      Cl156   2.553       .  S
C144        C624   1.473       .  S
C145        C647   1.477       .  S
N146        N147   1.319       .  A
N146        N152   1.318       .  A
N146       Mn154   2.204       .  S
N147        C157   1.352       .  A
N148        N149   1.320       .  A
N148        N150   1.317       .  A
N148       Mn155   2.218       .  S
N149        C158   1.356       .  A
N150        N151   1.317       .  A
N150       Mn154   2.185       .  S
N151        C158   1.351       .  A
N152        N153   1.324       .  A
N152       Mn155   2.218       .  S
N153        C157   1.356       .  A
Mn154      Cl156   2.554       .  S
Mn155      Cl156   2.539       .  S
C157        C634   1.478       .  S
C158        C614   1.475       .  S
N159        H191   1.037       .  S
N159        C164   1.353   1_554  A
N159        C935   1.355   1_545  A
N160        C167   1.351       .  A
N160        C168   1.351       .  A
N161        H192   1.036       .  S
N161        C166   1.355   1_554  A
N161        C937   1.354   1_545  A
N162        C169   1.350       .  A
N162        C170   1.351       .  A
C163        N931   1.355       .  A
C163        C171   1.388       .  A
C163        C179   1.417       .  A
C164        C180   1.414       .  A
C164        C172   1.386   1_545  A
C165        N933   1.354       .  A
C165        C173   1.390       .  A
C165        C182   1.422       .  A
C166        C181   1.417       .  A
C166        C174   1.386   1_545  A
C167        C179   1.413       .  A
C167        C175   1.386       .  A
C168        C182   1.415       .  A
C168        C176   1.387       .  A
C169        C177   1.386       .  A
C169        C180   1.409       .  A
C170        C178   1.386       .  A
C170        C181   1.411       .  A
C171        C944   1.373   1_554  A
C171        H183   1.082       .  S
C172        C943   1.373   1_556  A
C172        H184   1.082       .  S
C173        C946   1.373   1_554  A
C173        H185   1.082       .  S
C174        C945   1.373   1_556  A
C174        H186   1.082       .  S
C175        C176   1.376       .  A
C175        H187   1.082       .  S
C176        H188   1.082       .  S
C177        C178   1.375       .  A
C177        H189   1.082       .  S
C178        H190   1.082       .  S
C179        C574   1.484       .  S
C180        C594   1.479       .  S
C181        C604   1.483       .  S
C182        C584   1.484       .  S
N193        H225   1.041       .  S
N193        C198   1.352   1_556  A
N193        C197   1.354       .  A
N194        C201   1.349       .  A
N194        C202   1.348       .  A
N195        H226   1.040   1_554  S
N195        C200   1.353       .  A
N195        C199   1.352   1_554  A
N196        C203   1.349       .  A
N196        C204   1.350       .  A
C197        C205   1.389       .  A
C197        C213   1.419       .  A
C198        C214   1.414       .  A
C198        C206   1.387       .  A
C199        C207   1.389       .  A
C199        C216   1.417       .  A
C200        C215   1.411       .  A
C200        C208   1.385       .  A
C201        C213   1.411       .  A
C201        C209   1.386       .  A
C202        C216   1.410       .  A
C202        C210   1.387       .  A
C203        C211   1.387       .  A
C203        C214   1.411       .  A
C204        C212   1.386       .  A
C204        C215   1.409       .  A
C205        C206   1.374   1_556  A
C205        H217   1.082       .  S
C206        H218   1.082       .  S
C207        C208   1.374   1_556  A
C207        H219   1.082       .  S
C208        H220   1.082       .  S
C209        C210   1.378       .  A
C209        H221   1.082       .  S
C210        H222   1.082       .  S
C211        C212   1.378       .  A
C211        H223   1.082       .  S
C212        H224   1.082       .  S
C213        C554   1.484       .  S
C214        C534   1.479       .  S
C215        C544   1.481       .  S
C216        C564   1.478       .  S
N227        N228   1.323       .  A
N227        N233   1.313       .  A
N227       Mn256   2.202       .  S
N228        C235   1.355       .  A
N229        N231   1.313       .  A
N229       N1774   1.316       .  A
N229       Mn245   2.185       .  S
N230        C236   1.349       .  A
N230       N1773   1.316       .  A
N231       N1776   1.326       .  A
N231       Mn256   2.216       .  S
N232        C236   1.357       .  A
N232       N1775   1.326       .  A
N233        N234   1.317       .  A
N233       Mn245   2.185       .  S
N234        C235   1.350       .  A
C235        C567   1.471       .  S
C236        C557   1.477       .  S
N237        N243   1.313       .  A
N237       N1782   1.326       .  A
N237       Mn267   2.218       .  S
N238        C246   1.359       .  A
N238       N1781   1.326       .  A
N239        N240   1.312       .  A
N239        N241   1.314       .  A
N239       Mn245   2.169       .  S
N240        C247   1.346       .  A
N241        N242   1.328       .  A
N241       Mn267   2.228       .  S
N242        C247   1.361       .  A
N243       N1788   1.314       .  A
N243       Mn245   2.173       .  S
N244        C246   1.348       .  A
N244       N1787   1.314       .  A
Mn245      Cl269   2.527       .  S
C246        C597   1.478       .  S
C247        C607   1.480       .  S
N248        N249   1.317       .  A
N248        N254   1.316       .  A
N248      Mn1800   2.184   1_455  S
N249        C257   1.349       .  A
N250        N252   1.318       .  A
N250        N251   1.322       .  A
N250       Mn268   2.221       .  S
N251        C258   1.357       .  A
N252        N253   1.321       .  A
N252       Mn256   2.208       .  S
N253        C258   1.353       .  A
N254        N255   1.320       .  A
N254      Mn1812   2.213   1_455  S
N255        C257   1.356       .  A
Mn256      N1792   2.184       .  S
Mn256      Cl269   2.555       .  S
C257        C504   1.466       .  S
C258        C524   1.483       .  S
N259        N260   1.321       .  A
N259        N265   1.318       .  A
N259       Mn267   2.205       .  S
N260        C270   1.353       .  A
N261        N262   1.321       .  A
N261        N263   1.317       .  A
N261      Mn1812   2.217   1_455  S
N262        C271   1.357       .  A
N263        N264   1.319       .  A
N263      Mn1811   2.202   1_455  S
N264        C271   1.353       .  A
N265        N266   1.321       .  A
N265       Mn268   2.217       .  S
N266        C270   1.355       .  A
Mn267      N1807   2.202       .  S
Mn267      Cl269   2.556       .  S
Mn268      N1798   2.213       .  S
Mn268      N1805   2.217       .  S
Mn268      Cl269   2.541       .  S
C270        C514   1.480       .  S
C271        C494   1.478       .  S
N272        H304   1.041       .  S
N272        C277   1.355       .  A
N272        C276   1.356       .  A
N273        C280   1.353       .  A
N273        C281   1.352       .  A
N274        H305   1.041       .  S
N274        C279   1.355       .  A
N274        C278   1.352       .  A
N275        C282   1.350       .  A
N275        C283   1.351       .  A
C276        C284   1.385       .  A
C276        C292   1.415       .  A
C277        C293   1.421       .  A
C277        C285   1.388       .  A
C278        C286   1.387       .  A
C278        C295   1.415       .  A
C279        C294   1.415       .  A
C279        C287   1.387       .  A
C280        C292   1.414       .  A
C280        C288   1.386       .  A
C281        C295   1.415       .  A
C281        C289   1.387       .  A
C282        C290   1.387       .  A
C282        C293   1.415       .  A
C283        C291   1.382       .  A
C283        C294   1.406       .  A
C284        C285   1.372       .  A
C284        H296   1.083       .  S
C285        H297   1.082       .  S
C286        C287   1.377       .  A
C286        H298   1.082       .  S
C287        H299   1.082       .  S
C288        C289   1.364       .  A
C288        H300   1.081       .  S
C289        H301   1.081       .  S
C290        C291   1.370       .  A
C290        H302   1.082       .  S
C291        H303   1.082       .  S
C292        C627   1.490       .  S
C293        C617   1.524       .  S
C294        C497   1.493       .  S
C295        C507   1.484       .  S
N306        H338   1.038       .  S
N306        C311   1.354       .  A
N306        C310   1.353       .  A
N307        C314   1.352       .  A
N307        C315   1.352       .  A
N308        H339   1.041       .  S
N308        C313   1.354       .  A
N308        C312   1.354       .  A
N309        C316   1.352       .  A
N309        C317   1.352       .  A
C310        C318   1.386       .  A
C310        C326   1.414       .  A
C311        C327   1.416       .  A
C311        C319   1.387       .  A
C312        C320   1.386       .  A
C312        C329   1.416       .  A
C313        C328   1.417       .  A
C313        C321   1.387       .  A
C314        C326   1.414       .  A
C314        C322   1.386       .  A
C315        C329   1.415       .  A
C315        C323   1.386       .  A
C316        C324   1.386       .  A
C316        C327   1.416       .  A
C317        C325   1.387       .  A
C317        C328   1.417       .  A
C318        C319   1.376       .  A
C318        H330   1.082       .  S
C319        H331   1.082       .  S
C320        C321   1.377       .  A
C320        H332   1.082       .  S
C321        H333   1.082       .  S
C322        C323   1.375       .  A
C322        H334   1.082       .  S
C323        H335   1.082       .  S
C324        C325   1.376       .  A
C324        H336   1.082       .  S
C325        H337   1.082       .  S
C326        C517   1.492       .  S
C327        C637   1.497       .  S
C328        C644   1.498       .  S
C329        C527   1.496       .  S
N340        H372   1.039       .  S
N340        C345   1.354       .  A
N340        C344   1.357       .  A
N341        C348   1.350       .  A
N341        C349   1.349       .  A
N342        H373   1.041       .  S
N342        C347   1.353       .  A
N342        C346   1.354       .  A
N343        C350   1.353       .  A
N343        C351   1.354       .  A
C344        C352   1.388       .  A
C344        C360   1.423       .  A
C345        C361   1.415       .  A
C345        C353   1.386       .  A
C346        C354   1.387       .  A
C346        C363   1.415       .  A
C347        C362   1.417       .  A
C347        C355   1.388       .  A
C348        C360   1.415       .  A
C348        C356   1.387       .  A
C349        C363   1.406       .  A
C349        C357   1.382       .  A
C350        C358   1.386       .  A
C350        C361   1.417       .  A
C351        C359   1.387       .  A
C351        C362   1.419       .  A
C352        C353   1.372       .  A
C352        H364   1.082       .  S
C353        H365   1.083       .  S
C354        C355   1.378       .  A
C354        H366   1.082       .  S
C355        H367   1.082       .  S
C356        C357   1.372       .  A
C356        H368   1.082       .  S
C357        H369   1.083       .  S
C358        C359   1.367       .  A
C358        H370   1.081       .  S
C359        H371   1.081       .  S
C360        C657   1.528       .  S
C361        C667   1.487       .  S
C362        C484   1.492       .  S
C363        C477   1.490       .  S
N374        H406   1.046       .  S
N374        C379   1.350       .  A
N374        C378   1.354       .  A
N375        C382   1.353       .  A
N375        C383   1.350       .  A
N376        H407   1.044       .  S
N376        C381   1.353       .  A
N376        C380   1.352       .  A
N377        C384   1.351       .  A
N377        C385   1.353       .  A
C378        C386   1.387       .  A
C378        C394   1.415       .  A
C379        C395   1.412       .  A
C379        C387   1.386       .  A
C380        C388   1.388       .  A
C380        C397   1.416       .  A
C381        C396   1.414       .  A
C381        C389   1.386       .  A
C382        C394   1.414       .  A
C382        C390   1.384       .  A
C383        C397   1.416       .  A
C383        C391   1.388       .  A
C384        C392   1.386       .  A
C384        C395   1.413       .  A
C385        C393   1.386       .  A
C385        C396   1.415       .  A
C386        C387   1.375       .  A
C386       H1170   1.082       .  S
C387       H1171   1.082       .  S
C388        C389   1.378       .  A
C388        H400   1.082       .  S
C389        H401   1.082       .  S
C390        C391   1.375       .  A
C390        H402   1.082       .  S
C391        H403   1.082       .  S
C392        C393   1.375       .  A
C392        H404   1.082       .  S
C393        H405   1.082       .  S
C394        C674   1.501       .  S
C395        C454   1.486       .  S
C396        C464   1.497       .  S
C397        C687   1.494       .  S
H398       C1158   1.082       .  S
H399       C1159   1.082       .  S
N408        N409   1.327       .  A
N408        N414   1.313       .  A
N408       Mn437   2.222       .  S
N409        C416   1.360       .  A
N410        N412   1.313       .  A
N410       N1955   1.313       .  A
N410       Mn426   2.170       .  S
N411        C417   1.347       .  A
N411       N1954   1.313       .  A
N412       N1957   1.328       .  A
N412       Mn437   2.226       .  S
N413        C417   1.360       .  A
N413       N1956   1.328       .  A
N414        N415   1.313       .  A
N414       Mn426   2.169       .  S
N415        C416   1.347       .  A
C416        C547   1.479       .  S
C417        C537   1.480       .  S
N418        N424   1.313       .  A
N418       N1963   1.324       .  A
N418       Mn448   2.212       .  S
N419        C427   1.356       .  A
N419       N1962   1.324       .  A
N420        N421   1.314       .  A
N420        N422   1.313       .  A
N420       Mn426   2.173       .  S
N421        C428   1.347       .  A
N422        N423   1.327       .  A
N422       Mn448   2.221       .  S
N423        C428   1.360       .  A
N424       N1969   1.317       .  A
N424       Mn426   2.181       .  S
N425        C427   1.350       .  A
N425       N1968   1.317       .  A
Mn426      Cl450   2.532       .  S
C427        C577   1.473       .  S
C428        C587   1.477       .  S
N429        N430   1.319       .  A
N429        N435   1.317       .  A
N429      Mn1981   2.196   1_455  S
N430        C438   1.351       .  A
N431        N433   1.318       .  A
N431        N432   1.323       .  A
N431       Mn449   2.223       .  S
N432        C439   1.357       .  A
N433        N434   1.321       .  A
N433       Mn437   2.210       .  S
N434        C439   1.353       .  A
N435        N436   1.320       .  A
N435      Mn1993   2.210   1_455  S
N436        C438   1.355       .  A
Mn437      N1973   2.196       .  S
Mn437      Cl450   2.551       .  S
C438        C487   1.471       .  S
C439        C467   1.485       .  S
N440        N441   1.319       .  A
N440        N446   1.318       .  A
N440       Mn448   2.199       .  S
N441        C451   1.351       .  A
N442        N443   1.322       .  A
N442        N444   1.317       .  A
N442      Mn1993   2.220   1_455  S
N443        C452   1.357       .  A
N444        N445   1.319       .  A
N444      Mn1992   2.199   1_455  S
N445        C452   1.352       .  A
N446        N447   1.321       .  A
N446       Mn449   2.212       .  S
N447        C451   1.355       .  A
Mn448      N1988   2.199       .  S
Mn448      Cl450   2.553       .  S
Mn449      N1979   2.210       .  S
Mn449      N1986   2.220       .  S
Mn449      Cl450   2.546       .  S
C451        C457   1.474       .  S
C452        C474   1.478       .  S
C453        C454   1.405       .  A
C453        C458   1.397   1_545  A
C453        H459   1.083       .  S
C454        C455   1.403       .  A
C455       C1228   1.397       .  A
C455        H460   1.083       .  S
C456        C457   1.404       .  A
C456       C1227   1.397       .  A
C456        H461   1.083       .  S
C457       C1230   1.404       .  A
C458       C1229   1.404       .  A
C458        H462   1.083       .  S
C463        C464   1.406       .  A
C463        C468   1.402       .  A
C463        H469   1.083       .  S
C464        C465   1.406       .  A
C465        C466   1.400       .  A
C465        H470   1.083       .  S
C466        C467   1.405       .  A
C466        H471   1.083       .  S
C467        C468   1.407       .  A
C468        H472   1.083       .  S
C473        C474   1.403       .  A
C473       C1250   1.396       .  A
C473        H479   1.083       .  S
C474       C1247   1.407       .  A
C475        C476   1.401       .  A
C475       C1246   1.407   1_545  A
C475        H480   1.083       .  S
C476        C477   1.404       .  A
C476        H481   1.083       .  S
C477        C478   1.406       .  A
C478       C1245   1.396   1_545  A
C478        H482   1.083       .  S
C483        C484   1.406       .  A
C483        C488   1.400       .  A
C483        H489   1.083       .  S
C484        C485   1.405       .  A
C485        C486   1.395       .  A
C485        H490   1.083       .  S
C486        C487   1.403       .  A
C486        H491   1.083       .  S
C487        C488   1.403       .  A
C488        H492   1.083       .  S
C493        C498   1.396       .  A
C493       C1266   1.403       .  A
C493        H499   1.083       .  S
C494        C495   1.406   1_545  A
C494       C1265   1.403       .  A
C495       C1268   1.401       .  A
C495        H500   1.083       .  S
C496        C497   1.405       .  A
C496       C1267   1.401       .  A
C496       H1273   1.083       .  S
C497        C498   1.406       .  A
C498        H502   1.083       .  S
H501       C1268   1.083       .  S
C503        C504   1.402       .  A
C503        C508   1.398       .  A
C503        H509   1.083       .  S
C504        C505   1.402       .  A
C505        C506   1.395       .  A
C505        H510   1.083       .  S
C506        C507   1.403       .  A
C506        H511   1.083       .  S
C507        C508   1.403       .  A
C508        H512   1.083       .  S
C513        C514   1.405   1_565  A
C513       C1290   1.400       .  A
C513        H519   1.083       .  S
C514        C515   1.405       .  A
C515       C1288   1.398   1_545  A
C515        H520   1.083       .  S
C516        C517   1.405       .  A
C516       C1287   1.398       .  A
C516        H521   1.083       .  S
C517        C518   1.405       .  A
C518       C1285   1.400       .  A
C518        H522   1.083       .  S
C523        C524   1.405       .  A
C523        C528   1.399       .  A
C523        H529   1.083       .  S
C524        C525   1.406       .  A
C525        C526   1.402       .  A
C525        H530   1.083       .  S
C526        C527   1.406       .  A
C526        H531   1.083       .  S
C527        C528   1.405       .  A
C528        H532   1.083       .  S
C533        C534   1.405       .  A
C533        C538   1.405       .  A
C533        H539   1.083       .  S
C534        C535   1.397       .  A
C535        C536   1.391       .  A
C535        H540   1.084       .  S
C536        C537   1.407       .  A
C536        H541   1.083       .  S
C537        C538   1.406       .  A
C538        H542   1.083       .  S
C543        C544   1.397       .  A
C543        C548   1.390       .  A
C543        H549   1.084       .  S
C544        C545   1.406       .  A
C545        C546   1.406       .  A
C545        H550   1.083       .  S
C546        C547   1.406       .  A
C546        H551   1.083       .  S
C547        C548   1.407       .  A
C548        H552   1.083       .  S
C553        C554   1.405       .  A
C553        C558   1.404       .  A
C553        H559   1.083       .  S
C554        C555   1.401       .  A
C555        C556   1.396       .  A
C555        H560   1.083       .  S
C556        C557   1.405       .  A
C556        H561   1.083       .  S
C557        C558   1.404       .  A
C558        H562   1.083       .  S
C563        C564   1.403       .  A
C563        C568   1.401       .  A
C563        H569   1.083       .  S
C564        C565   1.400       .  A
C565        C566   1.393       .  A
C565        H570   1.083       .  S
C566        C567   1.404       .  A
C566        H571   1.083       .  S
C567        C568   1.404       .  A
C568        H572   1.083       .  S
C573        C574   1.405       .  A
C573        C578   1.402       .  A
C573        H579   1.083       .  S
C574        C575   1.400       .  A
C575        C576   1.395       .  A
C575        H580   1.083       .  S
C576        C577   1.404       .  A
C576        H581   1.083       .  S
C577        C578   1.404       .  A
C578        H582   1.083       .  S
C583        C584   1.406       .  A
C583        C588   1.405       .  A
C583       H1361   1.083       .  S
C584        C585   1.399       .  A
C585        C586   1.392       .  A
C585        H590   1.084       .  S
C586        C587   1.406       .  A
C586        H591   1.083       .  S
C587        C588   1.404       .  A
C588        H592   1.083       .  S
H589       C1355   1.083   1_545  S
C593        C594   1.397       .  A
C593        C598   1.391       .  A
C593        H599   1.084       .  S
C594        C595   1.404       .  A
C595        C596   1.404       .  A
C595       H1372   1.083   1_545  S
C596        C597   1.405       .  A
C596       H1373   1.083       .  S
C597        C598   1.407       .  A
C598        H602   1.083       .  S
H600       C1367   1.083       .  S
H601       C1368   1.083       .  S
C603        C604   1.397       .  A
C603        C608   1.390       .  A
C603        H609   1.084       .  S
C604        C605   1.406       .  A
C605        C606   1.406       .  A
C605        H610   1.083   1_545  S
C606        C607   1.406       .  A
C606        H611   1.083       .  S
C607        C608   1.407       .  A
C608        H612   1.083       .  S
C613        C618   1.395       .  A
C613       C1386   1.401       .  A
C613        H619   1.083       .  S
C614        C615   1.397       .  A
C614       C1385   1.401   1_545  A
C615        C616   1.396       .  A
C615        H620   1.083       .  S
C616       C1389   1.417   1_545  A
C616        H621   1.076       .  S
C617        C618   1.414       .  A
C617       C1388   1.417       .  A
C618        H622   1.078       .  S
C623        C624   1.405       .  A
C623        C628   1.397       .  A
C623        H629   1.083       .  S
C624        C625   1.402       .  A
C625        C626   1.399       .  A
C625        H630   1.083       .  S
C626        C627   1.404       .  A
C626        H631   1.083       .  S
C627        C628   1.405       .  A
C628        H632   1.083       .  S
C633        C638   1.404       .  A
C633       C1406   1.403       .  A
C633        H639   1.083       .  S
C634        C635   1.404   1_545  A
C634       C1405   1.403       .  A
C635       C1408   1.397       .  A
C635        H640   1.083       .  S
C636        C637   1.404       .  A
C636       C1407   1.397       .  A
C636        H641   1.083       .  S
C637        C638   1.409       .  A
C638        H642   1.083       .  S
C643        C644   1.405       .  A
C643        C648   1.397       .  A
C643        H649   1.083       .  S
C644        C645   1.409       .  A
C645        C646   1.403       .  A
C645        H650   1.083       .  S
C646        C647   1.402       .  A
C646        H651   1.083       .  S
C647        C648   1.405       .  A
C648        H652   1.083       .  S
C653        C654   1.399       .  A
C653        C658   1.399       .  A
C653        H659   1.083       .  S
C654       C1427   1.400       .  A
C655        C656   1.397       .  A
C655       C1426   1.400   1_545  A
C655        H660   1.083       .  S
C656        C657   1.416       .  A
C656        H661   1.079       .  S
C657       C1430   1.418   1_545  A
C658       C1429   1.418       .  A
C658        H662   1.075       .  S
C663        C664   1.404       .  A
C663        C668   1.395       .  A
C663        H669   1.083       .  S
C664        C665   1.403       .  A
C665        C666   1.401       .  A
C665        H670   1.083       .  S
C666        C667   1.405       .  A
C666        H671   1.083       .  S
C667        C668   1.402       .  A
C668        H672   1.083       .  S
C673        C674   1.410       .  A
C673       C1450   1.405   1_545  A
C673        H679   1.083   1_545  S
C674        C675   1.405       .  A
C675       C1448   1.399       .  A
C675        H680   1.083       .  S
C676        C677   1.406       .  A
C676       C1447   1.399       .  A
C676        H681   1.083       .  S
C677        C678   1.403       .  A
C678       C1445   1.405       .  A
C678        H682   1.083       .  S
C683        C684   1.402       .  A
C683        C688   1.402       .  A
C683        H689   1.083       .  S
C684        C685   1.404       .  A
C685        C686   1.394       .  A
C685        H690   1.083       .  S
C686        C687   1.405       .  A
C686        H691   1.083       .  S
C687        C688   1.408       .  A
C688        H692   1.083       .  S
C693        C694   1.406       .  A
C693        C698   1.405       .  A
C693        H699   1.083       .  S
C694        C695   1.400       .  A
C695        C696   1.393       .  A
C695        H700   1.083       .  S
C696        C697   1.406       .  A
C696        H701   1.083       .  S
C697        C698   1.405       .  A
C698        H702   1.083       .  S
C703        C704   1.405       .  A
C703        C708   1.403       .  A
C703        H709   1.083       .  S
C704        C705   1.399       .  A
C705        C706   1.393       .  A
C705        H710   1.084       .  S
C706        C707   1.405       .  A
C706        H711   1.082       .  S
C707        C708   1.403       .  A
C708        H712   1.083       .  S
C713        C714   1.405       .  A
C713        C718   1.406       .  A
C713        H719   1.083       .  S
C714        C715   1.399       .  A
C715        C716   1.393       .  A
C715        H720   1.084       .  S
C716        C717   1.408       .  A
C716        H721   1.083       .  S
C717        C718   1.406       .  A
C718        H722   1.083       .  S
C723        C724   1.404       .  A
C723        C728   1.404       .  A
C723        H729   1.083       .  S
C724        C725   1.399       .  A
C725        C726   1.393       .  A
C725        H730   1.084       .  S
C726        C727   1.405       .  A
C726        H731   1.083       .  S
C727        C728   1.407       .  A
C728        H732   1.083       .  S
C733        C734   1.398       .  A
C733        C738   1.390       .  A
C733        H739   1.084       .  S
C734        C735   1.407       .  A
C735        C736   1.409       .  A
C735        H740   1.083   1_545  S
C736        C737   1.407       .  A
C736        H741   1.083       .  S
C737        C738   1.407       .  A
C738        H742   1.083       .  S
C743        C744   1.406       .  A
C743        C748   1.406       .  A
C743        H749   1.083   1_545  S
C744        C745   1.398       .  A
C745        C746   1.390       .  A
C745        H750   1.084       .  S
C746        C747   1.406       .  A
C746        H751   1.082       .  S
C747        C748   1.406       .  A
C748        H752   1.083       .  S
C753        C754   1.400       .  A
C753        C758   1.394       .  A
C753        H759   1.083       .  S
C754        C755   1.405       .  A
C755        C756   1.403       .  A
C755        H760   1.083       .  S
C756        C757   1.403       .  A
C756        H761   1.083       .  S
C757        C758   1.405       .  A
C758        H762   1.083       .  S
C763        C764   1.404       .  A
C763        C768   1.401       .  A
C763       H1541   1.083       .  S
C764        C765   1.400       .  A
C765        C766   1.394       .  A
C765        H770   1.083       .  S
C766        C767   1.405       .  A
C766        H771   1.083       .  S
C767        C768   1.402       .  A
C768       H1544   1.083       .  S
H769       C1535   1.083   1_545  S
H772       C1540   1.083   1_545  S
N773        H805   1.043   1_565  S
N773        C777   1.353       .  A
N774       C2325   1.350       .  A
N774        C782   1.350   1_655  A
N775        H806   1.043       .  S
N775        C780   1.353       .  A
N776       C2327   1.352       .  A
N776        C784   1.352   1_655  A
C777        C785   1.389       .  A
C777        C793   1.418       .  A
C778        C794   1.415       .  A
C778        C786   1.387       .  A
C779        C787   1.389       .  A
C779        C796   1.419       .  A
C780        C795   1.416       .  A
C780        C788   1.387       .  A
C781       N2318   1.350       .  A
C781        C793   1.412       .  A
C781        C789   1.386       .  A
C782        C796   1.413       .  A
C782        C790   1.386   1_455  A
C783       N2320   1.352       .  A
C783        C791   1.385       .  A
C783        C794   1.412       .  A
C784        C792   1.386       .  A
C784        C795   1.414       .  A
C785        H797   1.082       .  S
C786        H798   1.082       .  S
C787        H799   1.082       .  S
C788        H800   1.083       .  S
C789       C2334   1.376       .  A
C789        H801   1.082       .  S
C790       C2333   1.376       .  A
C790        H802   1.082   1_655  S
C791       C2336   1.375       .  A
C791        H803   1.082       .  S
C792       C2335   1.375   1_455  A
C792        H804   1.082       .  S
C793       C1536   1.481       .  S
C794       C1516   1.483       .  S
C795       C1506   1.487       .  S
C796       C1526   1.484       .  S
N807        H839   1.036       .  S
N807        C812   1.354       .  A
N807        C811   1.356       .  A
N808       C2359   1.350       .  A
N808        C816   1.350       .  A
N809        H840   1.038       .  S
N809        C814   1.353       .  A
N809        C813   1.354       .  A
N810       C2361   1.352       .  A
N810        C818   1.352       .  A
C811        C819   1.389       .  A
C811        C827   1.422       .  A
C812        C828   1.417       .  A
C812        C820   1.386       .  A
C813        C821   1.389       .  A
C813        C830   1.419       .  A
C814        C829   1.413       .  A
C814        C822   1.385       .  A
C815       N2352   1.350   1_455  A
C815        C827   1.412       .  A
C815        C823   1.386   1_455  A
C816        C830   1.412       .  A
C816        C824   1.386       .  A
C817       N2354   1.352   1_455  A
C817        C825   1.386   1_455  A
C817        C828   1.413       .  A
C818        C826   1.385       .  A
C818        C829   1.412       .  A
C819        C820   1.373       .  A
C819        H831   1.082       .  S
C820        H832   1.082       .  S
C821        C822   1.372       .  A
C821        H833   1.082       .  S
C822        H834   1.082       .  S
C823       C2368   1.375       .  A
C823        H835   1.082   1_655  S
C824       C2367   1.375       .  A
C824        H836   1.082       .  S
C825       C2370   1.375       .  A
C825        H837   1.082   1_655  S
C826       C2369   1.375       .  A
C826        H838   1.082       .  S
C827       C1466   1.486       .  S
C828       C1486   1.485       .  S
C829       C1496   1.482       .  S
C830       C1476   1.482       .  S
N841        N842   1.325       .  A
N841        N847   1.313       .  A
N841       Mn870   2.212       .  S
N842        C849   1.357       .  A
N843        N845   1.313       .  A
N843        N844   1.315       .  A
N843       Mn859   2.172       .  S
N844        C850   1.347       .  A
N845        N846   1.328       .  A
N845       Mn870   2.229       .  S
N846        C850   1.361       .  A
N847        N848   1.316       .  A
N847       Mn859   2.182       .  S
N848        C849   1.350       .  A
C849       C1499   1.479       .  S
C850       C1489   1.483       .  S
N851        N857   1.314       .  A
N851        N852   1.326       .  A
N851       Mn881   2.218       .  S
N852        C860   1.358       .  A
N853        N854   1.315       .  A
N853        N855   1.314       .  A
N853       Mn859   2.176       .  S
N854        C861   1.347       .  A
N855        N856   1.324       .  A
N855       Mn881   2.211       .  S
N856        C861   1.356       .  A
N857        N858   1.316       .  A
N857       Mn859   2.177       .  S
N858        C860   1.347       .  A
Mn859      Cl883   2.531       .  S
C860       C1529   1.475       .  S
C861       C1539   1.470       .  S
N862        N863   1.320       .  A
N862        N868   1.318       .  A
N862       Mn870   2.190       .  S
N863        C871   1.351       .  A
N864        N866   1.319       .  A
N864        N865   1.323       .  A
N864       Mn882   2.218       .  S
N865        C872   1.355       .  A
N866        N867   1.318       .  A
N866       Mn870   2.201       .  S
N867        C872   1.351       .  A
N868        N869   1.320       .  A
N868       Mn882   2.220       .  S
N869        C871   1.355       .  A
Mn870      Cl883   2.554       .  S
C871       C1436   1.472       .  S
C872       C1456   1.475       .  S
N873        N874   1.319       .  A
N873        N879   1.318       .  A
N873       Mn881   2.202       .  S
N874        C884   1.351       .  A
N875        N876   1.321       .  A
N875        N877   1.317       .  A
N875       Mn882   2.217       .  S
N876        C885   1.356       .  A
N877        N878   1.319       .  A
N877       Mn881   2.195       .  S
N878        C885   1.353       .  A
N879        N880   1.326       .  A
N879       Mn882   2.236       .  S
N880        C884   1.358       .  A
Mn881      Cl883   2.557       .  S
Mn882      Cl883   2.539       .  S
C884       C1449   1.483       .  S
C885       C1426   1.480       .  S
N886        N887   1.326       .  A
N886        N892   1.313       .  A
N886       Mn915   2.218       .  S
N887        C894   1.358       .  A
N888        N890   1.314       .  A
N888        N889   1.315       .  A
N888       Mn904   2.180       .  S
N889        C895   1.348       .  A
N890        N891   1.327       .  A
N890       Mn915   2.223       .  S
N891        C895   1.359       .  A
N892        N893   1.315       .  A
N892       Mn904   2.174       .  S
N893        C894   1.347       .  A
C894       C1479   1.475       .  S
C895       C1469   1.479       .  S
N896        N902   1.312       .  A
N896        N897   1.329       .  A
N896       Mn926   2.231       .  S
N897        C905   1.361       .  A
N898        N899   1.314       .  A
N898        N900   1.314       .  A
N898       Mn904   2.178       .  S
N899        C906   1.348       .  A
N900        N901   1.327       .  A
N900       Mn926   2.217       .  S
N901        C906   1.359       .  A
N902        N903   1.313       .  A
N902       Mn904   2.169       .  S
N903        C905   1.347       .  A
Mn904      Cl928   2.529       .  S
C905       C1509   1.484       .  S
C906       C1519   1.479       .  S
N907        N908   1.320       .  A
N907        N913   1.317       .  A
N907       Mn915   2.199       .  S
N908        C916   1.352       .  A
N909        N911   1.318       .  A
N909        N910   1.324       .  A
N909       Mn927   2.224       .  S
N910        C917   1.357       .  A
N911        N912   1.318       .  A
N911       Mn915   2.198       .  S
N912        C917   1.351       .  A
N913        N914   1.320       .  A
N913       Mn927   2.206       .  S
N914        C916   1.353       .  A
Mn915      Cl928   2.553       .  S
C916       C1396   1.473       .  S
C917       C1419   1.477       .  S
N918        N919   1.319       .  A
N918        N924   1.318       .  A
N918       Mn926   2.204       .  S
N919        C929   1.352       .  A
N920        N921   1.320       .  A
N920        N922   1.317       .  A
N920       Mn927   2.218       .  S
N921        C930   1.356       .  A
N922        N923   1.317       .  A
N922       Mn926   2.185       .  S
N923        C930   1.351       .  A
N924        N925   1.324       .  A
N924       Mn927   2.218       .  S
N925        C929   1.356       .  A
Mn926      Cl928   2.554       .  S
Mn927      Cl928   2.539       .  S
C929       C1406   1.478       .  S
C930       C1386   1.475       .  S
N931        H963   1.037       .  S
N931        C936   1.353   1_554  A
N932        C939   1.351       .  A
N932        C940   1.351       .  A
N933        H964   1.036       .  S
N933        C938   1.355   1_554  A
N934        C941   1.350       .  A
N934        C942   1.351       .  A
C935        C943   1.388       .  A
C935        C951   1.417       .  A
C936        C952   1.414       .  A
C936        C944   1.386       .  A
C937        C945   1.390       .  A
C937        C954   1.422       .  A
C938        C953   1.417       .  A
C938        C946   1.386       .  A
C939        C951   1.413       .  A
C939        C947   1.386       .  A
C940        C954   1.415       .  A
C940        C948   1.387       .  A
C941        C949   1.386       .  A
C941        C952   1.409       .  A
C942        C950   1.386       .  A
C942        C953   1.411       .  A
C943        H955   1.082       .  S
C944        H956   1.082       .  S
C945        H957   1.082       .  S
C946        H958   1.082       .  S
C947        C948   1.376       .  A
C947        H959   1.082       .  S
C948        H960   1.082       .  S
C949        C950   1.375       .  A
C949        H961   1.082       .  S
C950        H962   1.082       .  S
C951       C1346   1.484       .  S
C952       C1366   1.479       .  S
C953       C1376   1.483       .  S
C954       C1356   1.484       .  S
N965        H997   1.041       .  S
N965        C970   1.352   1_556  A
N965        C969   1.354       .  A
N966        C973   1.349       .  A
N966        C974   1.348       .  A
N967        H998   1.040   1_554  S
N967        C972   1.353       .  A
N967        C971   1.352   1_554  A
N968        C975   1.349       .  A
N968        C976   1.350       .  A
C969        C977   1.388       .  A
C969        C985   1.419       .  A
C970        C986   1.414       .  A
C970        C978   1.387       .  A
C971        C979   1.389       .  A
C971        C988   1.417       .  A
C972        C987   1.411       .  A
C972        C980   1.385       .  A
C973        C985   1.411       .  A
C973        C981   1.386       .  A
C974        C988   1.410       .  A
C974        C982   1.387       .  A
C975        C983   1.387       .  A
C975        C986   1.411       .  A
C976        C984   1.386       .  A
C976        C987   1.409       .  A
C977        C978   1.374   1_556  A
C977        H989   1.082       .  S
C978        H990   1.082       .  S
C979        C980   1.374   1_556  A
C979        H991   1.082       .  S
C980        H992   1.082       .  S
C981        C982   1.378       .  A
C981        H993   1.082       .  S
C982        H994   1.082       .  S
C983        C984   1.378       .  A
C983        H995   1.082       .  S
C984        H996   1.082       .  S
C985       C1326   1.484       .  S
C986       C1306   1.479       .  S
C987       C1316   1.481       .  S
C988       C1336   1.478       .  S
N999       N1000   1.323       .  A
N999       N1005   1.313       .  A
N999      Mn1028   2.202       .  S
N1000      C1007   1.355       .  A
N1001      N1003   1.313       .  A
N1001      N2546   1.316       .  A
N1001     Mn1017   2.185       .  S
N1002      C1008   1.349       .  A
N1002      N2545   1.316       .  A
N1003      N2548   1.326       .  A
N1003     Mn1028   2.216       .  S
N1004      C1008   1.357       .  A
N1004      N2547   1.326       .  A
N1005      N1006   1.317       .  A
N1005     Mn1017   2.185       .  S
N1006      C1007   1.350       .  A
C1007      C1339   1.471       .  S
C1008      C1329   1.477       .  S
N1009      N1015   1.313       .  A
N1009      N2554   1.326       .  A
N1009     Mn1039   2.218       .  S
N1010      C1018   1.359       .  A
N1010      N2553   1.326       .  A
N1011      N1012   1.312       .  A
N1011      N1013   1.314       .  A
N1011     Mn1017   2.169       .  S
N1012      C1019   1.346       .  A
N1013      N1014   1.328       .  A
N1013     Mn1039   2.228       .  S
N1014      C1019   1.361       .  A
N1015      N2560   1.314       .  A
N1015     Mn1017   2.173       .  S
N1016      C1018   1.348       .  A
N1016      N2559   1.314       .  A
Mn1017    Cl1041   2.527       .  S
C1018      C1369   1.478       .  S
C1019      C1379   1.480       .  S
N1020      N1021   1.317       .  A
N1020      N1026   1.316       .  A
N1020     Mn2572   2.184   1_455  S
N1021      C1029   1.349       .  A
N1022      N1024   1.318       .  A
N1022      N1023   1.322       .  A
N1022     Mn1040   2.221       .  S
N1023      C1030   1.357       .  A
N1024      N1025   1.321       .  A
N1024     Mn1028   2.208       .  S
N1025      C1030   1.353       .  A
N1026      N1027   1.320       .  A
N1026     Mn2584   2.213   1_455  S
N1027      C1029   1.356       .  A
Mn1028     N2564   2.184       .  S
Mn1028    Cl1041   2.555       .  S
C1029      C1276   1.466       .  S
C1030      C1296   1.483       .  S
N1031      N1032   1.321       .  A
N1031      N1037   1.318       .  A
N1031     Mn1039   2.205       .  S
N1032      C1042   1.353       .  A
N1033      N1034   1.321       .  A
N1033      N1035   1.317       .  A
N1033     Mn2584   2.217   1_455  S
N1034      C1043   1.357       .  A
N1035      N1036   1.319       .  A
N1035     Mn2583   2.202   1_455  S
N1036      C1043   1.353       .  A
N1037      N1038   1.321       .  A
N1037     Mn1040   2.217       .  S
N1038      C1042   1.355       .  A
Mn1039     N2579   2.202       .  S
Mn1039    Cl1041   2.556       .  S
Mn1040     N2570   2.213       .  S
Mn1040     N2577   2.217       .  S
Mn1040    Cl1041   2.541       .  S
C1042      C1286   1.480       .  S
C1043      C1266   1.478       .  S
N1044      H1076   1.041       .  S
N1044      C1049   1.355       .  A
N1044      C1048   1.356       .  A
N1045      C1052   1.353       .  A
N1045      C1053   1.352       .  A
N1046      H1077   1.041       .  S
N1046      C1051   1.355       .  A
N1046      C1050   1.352       .  A
N1047      C1054   1.350       .  A
N1047      C1055   1.351       .  A
C1048      C1056   1.385       .  A
C1048      C1064   1.415       .  A
C1049      C1065   1.421       .  A
C1049      C1057   1.388       .  A
C1050      C1058   1.387       .  A
C1050      C1067   1.415       .  A
C1051      C1066   1.415       .  A
C1051      C1059   1.387       .  A
C1052      C1064   1.414       .  A
C1052      C1060   1.386       .  A
C1053      C1067   1.415       .  A
C1053      C1061   1.387       .  A
C1054      C1062   1.387       .  A
C1054      C1065   1.415       .  A
C1055      C1063   1.382       .  A
C1055      C1066   1.406       .  A
C1056      C1057   1.372       .  A
C1056      H1068   1.083       .  S
C1057      H1069   1.082       .  S
C1058      C1059   1.377       .  A
C1058      H1070   1.082       .  S
C1059      H1071   1.082       .  S
C1060      C1061   1.364       .  A
C1060      H1072   1.081       .  S
C1061      H1073   1.081       .  S
C1062      C1063   1.370       .  A
C1062      H1074   1.082       .  S
C1063      H1075   1.082       .  S
C1064      C1399   1.490       .  S
C1065      C1389   1.524       .  S
C1066      C1269   1.493       .  S
C1067      C1279   1.484       .  S
N1078      H1110   1.038       .  S
N1078      C1083   1.354       .  A
N1078      C1082   1.353       .  A
N1079      C1086   1.352       .  A
N1079      C1087   1.352       .  A
N1080      H1111   1.041       .  S
N1080      C1085   1.354       .  A
N1080      C1084   1.354       .  A
N1081      C1088   1.352       .  A
N1081      C1089   1.352       .  A
C1082      C1090   1.386       .  A
C1082      C1098   1.414       .  A
C1083      C1099   1.416       .  A
C1083      C1091   1.387       .  A
C1084      C1092   1.386       .  A
C1084      C1101   1.416       .  A
C1085      C1100   1.417       .  A
C1085      C1093   1.387       .  A
C1086      C1098   1.414       .  A
C1086      C1094   1.386       .  A
C1087      C1101   1.415       .  A
C1087      C1095   1.386       .  A
C1088      C1096   1.386       .  A
C1088      C1099   1.416       .  A
C1089      C1097   1.387       .  A
C1089      C1100   1.417       .  A
C1090      C1091   1.376       .  A
C1090      H1102   1.082       .  S
C1091      H1103   1.082       .  S
C1092      C1093   1.377       .  A
C1092      H1104   1.082       .  S
C1093      H1105   1.082       .  S
C1094      C1095   1.375       .  A
C1094      H1106   1.082       .  S
C1095      H1107   1.082       .  S
C1096      C1097   1.376       .  A
C1096      H1108   1.082       .  S
C1097      H1109   1.082       .  S
C1098      C1289   1.492       .  S
C1099      C1409   1.497       .  S
C1100      C1416   1.498       .  S
C1101      C1299   1.496       .  S
N1112      H1144   1.039       .  S
N1112      C1117   1.354       .  A
N1112      C1116   1.357       .  A
N1113      C1120   1.350       .  A
N1113      C1121   1.349       .  A
N1114      H1145   1.041       .  S
N1114      C1119   1.353       .  A
N1114      C1118   1.354       .  A
N1115      C1122   1.353       .  A
N1115      C1123   1.354       .  A
C1116      C1124   1.388       .  A
C1116      C1132   1.423       .  A
C1117      C1133   1.415       .  A
C1117      C1125   1.386       .  A
C1118      C1126   1.387       .  A
C1118      C1135   1.415       .  A
C1119      C1134   1.417       .  A
C1119      C1127   1.388       .  A
C1120      C1132   1.415       .  A
C1120      C1128   1.387       .  A
C1121      C1135   1.406       .  A
C1121      C1129   1.382       .  A
C1122      C1130   1.386       .  A
C1122      C1133   1.417       .  A
C1123      C1131   1.387       .  A
C1123      C1134   1.419       .  A
C1124      C1125   1.372       .  A
C1124      H1136   1.082       .  S
C1125      H1137   1.083       .  S
C1126      C1127   1.378       .  A
C1126      H1138   1.082       .  S
C1127      H1139   1.082       .  S
C1128      C1129   1.372       .  A
C1128      H1140   1.082       .  S
C1129      H1141   1.083       .  S
C1130      C1131   1.367       .  A
C1130      H1142   1.081       .  S
C1131      H1143   1.081       .  S
C1132      C1429   1.528       .  S
C1133      C1439   1.487       .  S
C1134      C1256   1.492       .  S
C1135      C1249   1.490       .  S
N1146      H1178   1.046       .  S
N1146      C1151   1.350       .  A
N1146      C1150   1.354       .  A
N1147      C1154   1.353       .  A
N1147      C1155   1.350       .  A
N1148      H1179   1.044       .  S
N1148      C1153   1.353       .  A
N1148      C1152   1.352       .  A
N1149      C1156   1.351       .  A
N1149      C1157   1.353       .  A
C1150      C1158   1.387       .  A
C1150      C1166   1.415       .  A
C1151      C1167   1.412       .  A
C1151      C1159   1.386       .  A
C1152      C1160   1.388       .  A
C1152      C1169   1.416       .  A
C1153      C1168   1.414       .  A
C1153      C1161   1.386       .  A
C1154      C1166   1.414       .  A
C1154      C1162   1.384       .  A
C1155      C1169   1.416       .  A
C1155      C1163   1.388       .  A
C1156      C1164   1.386       .  A
C1156      C1167   1.413       .  A
C1157      C1165   1.386       .  A
C1157      C1168   1.415       .  A
C1158      C1159   1.375       .  A
C1160      C1161   1.378       .  A
C1160      H1172   1.082       .  S
C1161      H1173   1.082       .  S
C1162      C1163   1.375       .  A
C1162      H1174   1.082       .  S
C1163      H1175   1.082       .  S
C1164      C1165   1.375       .  A
C1164      H1176   1.082       .  S
C1165      H1177   1.082       .  S
C1166      C1446   1.501       .  S
C1167      C1226   1.486       .  S
C1168      C1236   1.497       .  S
C1169      C1459   1.494       .  S
N1180      N1181   1.327       .  A
N1180      N1186   1.313       .  A
N1180     Mn1209   2.222       .  S
N1181      C1188   1.360       .  A
N1182      N1184   1.313       .  A
N1182      N2727   1.313       .  A
N1182     Mn1198   2.170       .  S
N1183      C1189   1.347       .  A
N1183      N2726   1.313       .  A
N1184      N2729   1.328       .  A
N1184     Mn1209   2.226       .  S
N1185      C1189   1.360       .  A
N1185      N2728   1.328       .  A
N1186      N1187   1.313       .  A
N1186     Mn1198   2.169       .  S
N1187      C1188   1.347       .  A
C1188      C1319   1.479       .  S
C1189      C1309   1.480       .  S
N1190      N1196   1.313       .  A
N1190      N2735   1.324       .  A
N1190     Mn1220   2.212       .  S
N1191      C1199   1.356       .  A
N1191      N2734   1.324       .  A
N1192      N1193   1.314       .  A
N1192      N1194   1.313       .  A
N1192     Mn1198   2.173       .  S
N1193      C1200   1.347       .  A
N1194      N1195   1.327       .  A
N1194     Mn1220   2.221       .  S
N1195      C1200   1.360       .  A
N1196      N2741   1.317       .  A
N1196     Mn1198   2.181       .  S
N1197      C1199   1.350       .  A
N1197      N2740   1.317       .  A
Mn1198    Cl1222   2.532       .  S
C1199      C1349   1.473       .  S
C1200      C1359   1.477       .  S
N1201      N1202   1.319       .  A
N1201      N1207   1.317       .  A
N1201     Mn2753   2.196   1_455  S
N1202      C1210   1.351       .  A
N1203      N1205   1.318       .  A
N1203      N1204   1.323       .  A
N1203     Mn1221   2.223       .  S
N1204      C1211   1.357       .  A
N1205      N1206   1.321       .  A
N1205     Mn1209   2.210       .  S
N1206      C1211   1.353       .  A
N1207      N1208   1.320       .  A
N1207     Mn2765   2.210   1_455  S
N1208      C1210   1.355       .  A
Mn1209     N2745   2.196       .  S
Mn1209    Cl1222   2.551       .  S
C1210      C1259   1.471       .  S
C1211      C1239   1.485       .  S
N1212      N1213   1.319       .  A
N1212      N1218   1.318       .  A
N1212     Mn1220   2.199       .  S
N1213      C1223   1.351       .  A
N1214      N1215   1.322       .  A
N1214      N1216   1.317       .  A
N1214     Mn2765   2.220   1_455  S
N1215      C1224   1.357       .  A
N1216      N1217   1.319       .  A
N1216     Mn2764   2.199   1_455  S
N1217      C1224   1.352       .  A
N1218      N1219   1.321       .  A
N1218     Mn1221   2.212       .  S
N1219      C1223   1.355       .  A
Mn1220     N2760   2.199       .  S
Mn1220    Cl1222   2.553       .  S
Mn1221     N2751   2.210       .  S
Mn1221     N2758   2.220       .  S
Mn1221    Cl1222   2.546       .  S
C1223      C1229   1.474       .  S
C1224      C1246   1.478       .  S
C1225      C1226   1.405       .  A
C1225      C1230   1.397       .  A
C1225      H1231   1.083       .  S
C1226      C1227   1.403       .  A
C1227      H1232   1.083       .  S
C1228      C1229   1.404   1_545  A
C1228      H1233   1.083       .  S
C1230      H1234   1.083       .  S
C1235      C1236   1.406       .  A
C1235      C1240   1.402       .  A
C1235      H1241   1.083       .  S
C1236      C1237   1.406       .  A
C1237      C1238   1.400       .  A
C1237      H1242   1.083       .  S
C1238      C1239   1.405       .  A
C1238      H1243   1.083       .  S
C1239      C1240   1.407       .  A
C1240      H1244   1.083       .  S
C1245      C1246   1.403       .  A
C1245      H1251   1.083       .  S
C1247      C1248   1.401       .  A
C1247      H1252   1.083       .  S
C1248      C1249   1.404       .  A
C1248      H1253   1.083       .  S
C1249      C1250   1.406       .  A
C1250      H1254   1.083       .  S
C1255      C1256   1.406       .  A
C1255      C1260   1.400       .  A
C1255      H1261   1.083       .  S
C1256      C1257   1.405       .  A
C1257      C1258   1.395       .  A
C1257      H1262   1.083       .  S
C1258      C1259   1.403       .  A
C1258      H1263   1.083       .  S
C1259      C1260   1.403       .  A
C1260      H1264   1.083       .  S
C1265      C1270   1.396       .  A
C1265      H1271   1.083       .  S
C1266      C1267   1.406       .  A
C1267      H1272   1.083       .  S
C1268      C1269   1.405       .  A
C1269      C1270   1.406   1_565  A
C1270      H1274   1.083       .  S
C1275      C1276   1.402       .  A
C1275      C1280   1.398       .  A
C1275      H1281   1.083       .  S
C1276      C1277   1.402       .  A
C1277      C1278   1.395       .  A
C1277      H1282   1.083       .  S
C1278      C1279   1.403       .  A
C1278      H1283   1.083       .  S
C1279      C1280   1.403       .  A
C1280      H1284   1.083       .  S
C1285      C1286   1.405       .  A
C1285      H1291   1.083       .  S
C1286      C1287   1.405       .  A
C1287      H1292   1.083       .  S
C1288      C1289   1.405       .  A
C1288      H1293   1.083       .  S
C1289      C1290   1.405       .  A
C1290      H1294   1.083       .  S
C1295      C1296   1.405       .  A
C1295      C1300   1.399       .  A
C1295      H1301   1.083       .  S
C1296      C1297   1.406       .  A
C1297      C1298   1.402       .  A
C1297      H1302   1.083       .  S
C1298      C1299   1.406       .  A
C1298      H1303   1.083       .  S
C1299      C1300   1.405       .  A
C1300      H1304   1.083       .  S
C1305      C1306   1.405       .  A
C1305      C1310   1.405       .  A
C1305      H1311   1.083       .  S
C1306      C1307   1.397       .  A
C1307      C1308   1.391       .  A
C1307      H1312   1.084       .  S
C1308      C1309   1.407       .  A
C1308      H1313   1.083       .  S
C1309      C1310   1.406       .  A
C1310      H1314   1.083       .  S
C1315      C1316   1.397       .  A
C1315      C1320   1.390       .  A
C1315      H1321   1.084       .  S
C1316      C1317   1.406       .  A
C1317      C1318   1.406       .  A
C1317      H1322   1.083       .  S
C1318      C1319   1.406       .  A
C1318      H1323   1.083       .  S
C1319      C1320   1.407       .  A
C1320      H1324   1.083       .  S
C1325      C1326   1.405       .  A
C1325      C1330   1.404       .  A
C1325      H1331   1.083       .  S
C1326      C1327   1.401       .  A
C1327      C1328   1.396       .  A
C1327      H1332   1.083       .  S
C1328      C1329   1.405       .  A
C1328      H1333   1.083       .  S
C1329      C1330   1.404       .  A
C1330      H1334   1.083       .  S
C1335      C1336   1.403       .  A
C1335      C1340   1.401       .  A
C1335      H1341   1.083       .  S
C1336      C1337   1.400       .  A
C1337      C1338   1.393       .  A
C1337      H1342   1.083       .  S
C1338      C1339   1.404       .  A
C1338      H1343   1.083       .  S
C1339      C1340   1.404       .  A
C1340      H1344   1.083       .  S
C1345      C1346   1.405       .  A
C1345      C1350   1.402       .  A
C1345      H1351   1.083   1_565  S
C1346      C1347   1.400       .  A
C1347      C1348   1.395       .  A
C1347      H1352   1.083       .  S
C1348      C1349   1.404       .  A
C1348      H1353   1.083       .  S
C1349      C1350   1.404       .  A
C1350      H1354   1.083   1_565  S
C1355      C1356   1.406       .  A
C1355      C1360   1.405       .  A
C1356      C1357   1.399       .  A
C1357      C1358   1.392       .  A
C1357      H1362   1.084       .  S
C1358      C1359   1.406       .  A
C1358      H1363   1.083       .  S
C1359      C1360   1.404       .  A
C1360      H1364   1.083   1_565  S
C1365      C1366   1.397       .  A
C1365      C1370   1.391       .  A
C1365      H1371   1.084       .  S
C1366      C1367   1.404       .  A
C1367      C1368   1.404       .  A
C1368      C1369   1.405       .  A
C1369      C1370   1.407       .  A
C1370      H1374   1.083       .  S
C1375      C1376   1.397       .  A
C1375      C1380   1.390       .  A
C1375      H1381   1.084       .  S
C1376      C1377   1.406       .  A
C1377      C1378   1.406       .  A
C1377      H1382   1.083       .  S
C1378      C1379   1.406       .  A
C1378      H1383   1.083       .  S
C1379      C1380   1.407       .  A
C1380      H1384   1.083       .  S
C1385      C1390   1.395       .  A
C1385      H1391   1.083       .  S
C1386      C1387   1.397       .  A
C1387      C1388   1.396       .  A
C1387      H1392   1.083       .  S
C1388      H1393   1.076       .  S
C1389      C1390   1.414       .  A
C1390      H1394   1.078       .  S
C1395      C1396   1.405       .  A
C1395      C1400   1.397       .  A
C1395      H1401   1.083       .  S
C1396      C1397   1.402       .  A
C1397      C1398   1.399       .  A
C1397      H1402   1.083       .  S
C1398      C1399   1.404       .  A
C1398      H1403   1.083       .  S
C1399      C1400   1.405       .  A
C1400      H1404   1.083       .  S
C1405      C1410   1.404   1_545  A
C1405      H1411   1.083       .  S
C1406      C1407   1.404       .  A
C1407      H1412   1.083       .  S
C1408      C1409   1.404       .  A
C1408      H1413   1.083       .  S
C1409      C1410   1.409       .  A
C1410      H1414   1.083   1_565  S
C1415      C1416   1.405       .  A
C1415      C1420   1.397       .  A
C1415      H1421   1.083       .  S
C1416      C1417   1.409       .  A
C1417      C1418   1.403       .  A
C1417      H1422   1.083       .  S
C1418      C1419   1.402       .  A
C1418      H1423   1.083       .  S
C1419      C1420   1.405       .  A
C1420      H1424   1.083       .  S
C1425      C1426   1.399       .  A
C1425      C1430   1.399       .  A
C1425      H1431   1.083       .  S
C1427      C1428   1.397       .  A
C1427      H1432   1.083       .  S
C1428      C1429   1.416       .  A
C1428      H1433   1.079       .  S
C1430      H1434   1.075       .  S
C1435      C1436   1.404       .  A
C1435      C1440   1.395       .  A
C1435      H1441   1.083       .  S
C1436      C1437   1.403       .  A
C1437      C1438   1.401       .  A
C1437      H1442   1.083       .  S
C1438      C1439   1.405       .  A
C1438      H1443   1.083       .  S
C1439      C1440   1.402       .  A
C1440      H1444   1.083       .  S
C1445      C1446   1.410       .  A
C1445      H1451   1.083       .  S
C1446      C1447   1.405       .  A
C1447      H1452   1.083       .  S
C1448      C1449   1.406   1_545  A
C1448      H1453   1.083       .  S
C1449      C1450   1.403       .  A
C1450      H1454   1.083       .  S
C1455      C1456   1.402       .  A
C1455      C1460   1.402       .  A
C1455      H1461   1.083       .  S
C1456      C1457   1.404       .  A
C1457      C1458   1.394       .  A
C1457      H1462   1.083       .  S
C1458      C1459   1.405       .  A
C1458      H1463   1.083       .  S
C1459      C1460   1.408       .  A
C1460      H1464   1.083       .  S
C1465      C1466   1.406       .  A
C1465      C1470   1.405       .  A
C1465      H1471   1.083       .  S
C1466      C1467   1.400       .  A
C1467      C1468   1.393       .  A
C1467      H1472   1.083       .  S
C1468      C1469   1.406       .  A
C1468      H1473   1.083       .  S
C1469      C1470   1.405       .  A
C1470      H1474   1.083       .  S
C1475      C1476   1.405       .  A
C1475      C1480   1.403       .  A
C1475      H1481   1.083       .  S
C1476      C1477   1.399       .  A
C1477      C1478   1.393       .  A
C1477      H1482   1.084       .  S
C1478      C1479   1.405       .  A
C1478      H1483   1.082       .  S
C1479      C1480   1.403       .  A
C1480      H1484   1.083       .  S
C1485      C1486   1.405       .  A
C1485      C1490   1.406       .  A
C1485      H1491   1.083       .  S
C1486      C1487   1.399       .  A
C1487      C1488   1.393       .  A
C1487      H1492   1.084       .  S
C1488      C1489   1.408       .  A
C1488      H1493   1.083       .  S
C1489      C1490   1.406       .  A
C1490      H1494   1.083       .  S
C1495      C1496   1.404       .  A
C1495      C1500   1.404       .  A
C1495      H1501   1.083       .  S
C1496      C1497   1.399       .  A
C1497      C1498   1.392       .  A
C1497      H1502   1.084       .  S
C1498      C1499   1.405       .  A
C1498      H1503   1.083       .  S
C1499      C1500   1.407       .  A
C1500      H1504   1.083       .  S
C1505      C1506   1.398       .  A
C1505      C1510   1.390       .  A
C1505      H1511   1.084       .  S
C1506      C1507   1.407       .  A
C1507      C1508   1.409       .  A
C1507      H1512   1.083       .  S
C1508      C1509   1.407       .  A
C1508      H1513   1.083       .  S
C1509      C1510   1.407       .  A
C1510      H1514   1.083       .  S
C1515      C1516   1.406       .  A
C1515      C1520   1.406       .  A
C1515      H1521   1.083       .  S
C1516      C1517   1.398       .  A
C1517      C1518   1.390       .  A
C1517      H1522   1.084       .  S
C1518      C1519   1.406       .  A
C1518      H1523   1.082       .  S
C1519      C1520   1.406       .  A
C1520      H1524   1.083       .  S
C1525      C1526   1.400       .  A
C1525      C1530   1.394       .  A
C1525      H1531   1.083       .  S
C1526      C1527   1.405       .  A
C1527      C1528   1.403       .  A
C1527      H1532   1.083   1_565  S
C1528      C1529   1.403       .  A
C1528      H1533   1.083   1_565  S
C1529      C1530   1.405       .  A
C1530      H1534   1.083       .  S
C1535      C1536   1.404       .  A
C1535      C1540   1.401       .  A
C1536      C1537   1.400       .  A
C1537      C1538   1.394       .  A
C1537      H1542   1.083       .  S
C1538      C1539   1.405       .  A
C1538      H1543   1.083       .  S
C1539      C1540   1.402       .  A
N1545      H1577   1.043       .  S
N1545      C2322   1.352       .  A
N1545      C1549   1.353       .  A
N1546      C1554   1.350       .  A
N1547      H1578   1.043   1_565  S
N1547      C1552   1.353       .  A
N1547      C2323   1.354       .  A
N1548      C1556   1.352       .  A
C1549      C1557   1.389       .  A
C1549      C1565   1.418       .  A
C1550      N2317   1.352   1_545  A
C1550      C1566   1.415       .  A
C1550      C1558   1.387   1_545  A
C1551      N2319   1.354       .  A
C1551      C1559   1.389       .  A
C1551      C1568   1.419       .  A
C1552      C1567   1.416   1_565  A
C1552      C1560   1.387       .  A
C1553      C1565   1.412       .  A
C1553      C1561   1.386       .  A
C1554      C1568   1.413       .  A
C1554      C1562   1.386       .  A
C1555      C1563   1.385       .  A
C1555      C1566   1.412       .  A
C1556      C1564   1.386       .  A
C1556      C1567   1.414       .  A
C1557      C2330   1.373       .  A
C1557      H1569   1.082       .  S
C1558      C2329   1.373       .  A
C1558      H1570   1.082       .  S
C1559      C2332   1.372       .  A
C1559      H1571   1.082       .  S
C1560      C2331   1.372       .  A
C1560      H1572   1.083       .  S
C1561      H1573   1.082       .  S
C1562      H1574   1.082       .  S
C1563      H1575   1.082       .  S
C1564      H1576   1.082       .  S
C1565      C2308   1.481       .  S
C1566      C2288   1.483       .  S
C1567      C2278   1.487       .  S
C1568      C2298   1.484       .  S
N1579      H1611   1.036       .  S
N1579      C1584   1.354       .  A
N1579      C1583   1.356       .  A
N1580      C1588   1.350       .  A
N1581      H1612   1.038       .  S
N1581      C1586   1.353       .  A
N1581      C1585   1.354       .  A
N1582      C1590   1.352       .  A
C1583      C1591   1.389       .  A
C1583      C1599   1.422       .  A
C1584      C1600   1.417       .  A
C1584      C1592   1.386       .  A
C1585      C1593   1.389       .  A
C1585      C1602   1.419       .  A
C1586      C1601   1.413       .  A
C1586      C1594   1.385       .  A
C1587      C1599   1.412       .  A
C1587      C1595   1.386       .  A
C1588      C1602   1.412       .  A
C1588      C1596   1.386       .  A
C1589      C1597   1.386       .  A
C1589      C1600   1.413       .  A
C1590      C1598   1.385       .  A
C1590      C1601   1.412       .  A
C1591      C1592   1.373       .  A
C1591      H1603   1.082       .  S
C1592      H1604   1.082       .  S
C1593      C1594   1.372       .  A
C1593      H1605   1.082       .  S
C1594      H1606   1.082       .  S
C1595      H1607   1.082       .  S
C1596      H1608   1.082       .  S
C1597      H1609   1.082       .  S
C1598      H1610   1.082       .  S
C1599      C2238   1.486       .  S
C1600      C2258   1.485       .  S
C1601      C2268   1.482       .  S
C1602      C2248   1.482       .  S
N1613      N1614   1.325       .  A
N1613      N1619   1.313       .  A
N1613     Mn1642   2.212       .  S
N1614      C1621   1.357       .  A
N1615      N1617   1.313       .  A
N1615      N1616   1.315       .  A
N1615     Mn1631   2.172       .  S
N1616      C1622   1.347       .  A
N1617      N1618   1.328       .  A
N1617     Mn1642   2.229       .  S
N1618      C1622   1.361       .  A
N1619      N1620   1.316       .  A
N1619     Mn1631   2.182       .  S
N1620      C1621   1.350       .  A
C1621      C2271   1.479       .  S
C1622      C2261   1.483       .  S
N1623      N1629   1.314       .  A
N1623      N1624   1.326       .  A
N1623     Mn1653   2.218       .  S
N1624      C1632   1.358       .  A
N1625      N1626   1.315       .  A
N1625      N1627   1.314       .  A
N1625     Mn1631   2.176       .  S
N1626      C1633   1.347       .  A
N1627      N1628   1.324       .  A
N1627     Mn1653   2.211       .  S
N1628      C1633   1.356       .  A
N1629      N1630   1.316       .  A
N1629     Mn1631   2.177       .  S
N1630      C1632   1.347       .  A
Mn1631    Cl1655   2.531       .  S
C1632      C2301   1.475       .  S
C1633      C2311   1.470       .  S
N1634      N1635   1.320       .  A
N1634      N1640   1.318       .  A
N1634     Mn1642   2.190       .  S
N1635      C1643   1.351       .  A
N1636      N1638   1.319       .  A
N1636      N1637   1.323       .  A
N1636     Mn1654   2.218       .  S
N1637      C1644   1.355       .  A
N1638      N1639   1.318       .  A
N1638     Mn1642   2.201       .  S
N1639      C1644   1.351       .  A
N1640      N1641   1.320       .  A
N1640     Mn1654   2.220       .  S
N1641      C1643   1.355       .  A
Mn1642    Cl1655   2.554       .  S
C1643      C2208   1.472       .  S
C1644      C2228   1.475       .  S
N1645      N1646   1.319       .  A
N1645      N1651   1.318       .  A
N1645     Mn1653   2.202       .  S
N1646      C1656   1.351       .  A
N1647      N1648   1.321       .  A
N1647      N1649   1.317       .  A
N1647     Mn1654   2.217       .  S
N1648      C1657   1.356       .  A
N1649      N1650   1.319       .  A
N1649     Mn1653   2.195       .  S
N1650      C1657   1.353       .  A
N1651      N1652   1.326       .  A
N1651     Mn1654   2.236       .  S
N1652      C1656   1.358       .  A
Mn1653    Cl1655   2.557       .  S
Mn1654    Cl1655   2.539       .  S
C1656      C2221   1.483       .  S
C1657      C2198   1.480       .  S
N1658      N1659   1.326       .  A
N1658      N1664   1.313       .  A
N1658     Mn1687   2.218       .  S
N1659      C1666   1.358       .  A
N1660      N1662   1.314       .  A
N1660      N1661   1.315       .  A
N1660     Mn1676   2.180       .  S
N1661      C1667   1.348       .  A
N1662      N1663   1.327       .  A
N1662     Mn1687   2.223       .  S
N1663      C1667   1.359       .  A
N1664      N1665   1.315       .  A
N1664     Mn1676   2.174       .  S
N1665      C1666   1.347       .  A
C1666      C2251   1.475       .  S
C1667      C2241   1.479       .  S
N1668      N1674   1.312       .  A
N1668      N1669   1.329       .  A
N1668     Mn1698   2.231       .  S
N1669      C1677   1.361       .  A
N1670      N1671   1.314       .  A
N1670      N1672   1.314       .  A
N1670     Mn1676   2.178       .  S
N1671      C1678   1.348       .  A
N1672      N1673   1.327       .  A
N1672     Mn1698   2.217       .  S
N1673      C1678   1.359       .  A
N1674      N1675   1.313       .  A
N1674     Mn1676   2.169       .  S
N1675      C1677   1.347       .  A
Mn1676    Cl1700   2.529       .  S
C1677      C2281   1.484       .  S
C1678      C2291   1.479       .  S
N1679      N1680   1.320       .  A
N1679      N1685   1.317       .  A
N1679     Mn1687   2.199       .  S
N1680      C1688   1.352       .  A
N1681      N1683   1.318       .  A
N1681      N1682   1.324       .  A
N1681     Mn1699   2.224       .  S
N1682      C1689   1.357       .  A
N1683      N1684   1.318       .  A
N1683     Mn1687   2.198       .  S
N1684      C1689   1.351       .  A
N1685      N1686   1.320       .  A
N1685     Mn1699   2.206       .  S
N1686      C1688   1.353       .  A
Mn1687    Cl1700   2.553       .  S
C1688      C2168   1.473       .  S
C1689      C2191   1.477       .  S
N1690      N1691   1.319       .  A
N1690      N1696   1.318       .  A
N1690     Mn1698   2.204       .  S
N1691      C1701   1.352       .  A
N1692      N1693   1.320       .  A
N1692      N1694   1.317       .  A
N1692     Mn1699   2.218       .  S
N1693      C1702   1.356       .  A
N1694      N1695   1.317       .  A
N1694     Mn1698   2.185       .  S
N1695      C1702   1.351       .  A
N1696      N1697   1.324       .  A
N1696     Mn1699   2.218       .  S
N1697      C1701   1.356       .  A
Mn1698    Cl1700   2.554       .  S
Mn1699    Cl1700   2.539       .  S
C1701      C2178   1.478       .  S
C1702      C2158   1.475       .  S
N1703      H1735   1.038       .  S
N1703      C1708   1.353   1_554  A
N1703      C2479   1.355   1_545  A
N1704      C1711   1.351       .  A
N1704      C1712   1.351       .  A
N1705      H1736   1.036       .  S
N1705      C1710   1.355   1_554  A
N1705      C2481   1.354   1_545  A
N1706      C1713   1.350       .  A
N1706      C1714   1.351       .  A
C1707      N2475   1.355       .  A
C1707      C1715   1.388       .  A
C1707      C1723   1.417       .  A
C1708      C1724   1.414       .  A
C1708      C1716   1.386   1_545  A
C1709      N2477   1.354       .  A
C1709      C1717   1.390       .  A
C1709      C1726   1.422       .  A
C1710      C1725   1.417       .  A
C1710      C1718   1.386   1_545  A
C1711      C1723   1.413       .  A
C1711      C1719   1.386       .  A
C1712      C1726   1.415       .  A
C1712      C1720   1.387       .  A
C1713      C1721   1.386       .  A
C1713      C1724   1.409       .  A
C1714      C1722   1.386       .  A
C1714      C1725   1.411       .  A
C1715      C2488   1.373   1_554  A
C1715      H1727   1.082       .  S
C1716      C2487   1.373   1_556  A
C1716      H1728   1.082       .  S
C1717      C2490   1.373   1_554  A
C1717      H1729   1.082       .  S
C1718      C2489   1.373   1_556  A
C1718      H1730   1.082       .  S
C1719      C1720   1.376       .  A
C1719      H1731   1.082       .  S
C1720      H1732   1.082       .  S
C1721      C1722   1.375       .  A
C1721      H1733   1.082       .  S
C1722      H1734   1.082       .  S
C1723      C2118   1.484       .  S
C1724      C2138   1.479       .  S
C1725      C2148   1.483       .  S
C1726      C2128   1.484       .  S
N1737      H1769   1.041       .  S
N1737      C1742   1.352   1_556  A
N1737      C1741   1.354       .  A
N1738      C1745   1.349       .  A
N1738      C1746   1.348       .  A
N1739      H1770   1.040   1_554  S
N1739      C1744   1.353       .  A
N1739      C1743   1.352   1_554  A
N1740      C1747   1.349       .  A
N1740      C1748   1.350       .  A
C1741      C1749   1.389       .  A
C1741      C1757   1.419       .  A
C1742      C1758   1.414       .  A
C1742      C1750   1.387       .  A
C1743      C1751   1.389       .  A
C1743      C1760   1.417       .  A
C1744      C1759   1.411       .  A
C1744      C1752   1.385       .  A
C1745      C1757   1.411       .  A
C1745      C1753   1.386       .  A
C1746      C1760   1.410       .  A
C1746      C1754   1.387       .  A
C1747      C1755   1.387       .  A
C1747      C1758   1.411       .  A
C1748      C1756   1.386       .  A
C1748      C1759   1.409       .  A
C1749      C1750   1.374   1_556  A
C1749      H1761   1.082       .  S
C1750      H1762   1.082       .  S
C1751      C1752   1.374   1_556  A
C1751      H1763   1.082       .  S
C1752      H1764   1.082       .  S
C1753      C1754   1.378       .  A
C1753      H1765   1.082       .  S
C1754      H1766   1.082       .  S
C1755      C1756   1.378       .  A
C1755      H1767   1.082       .  S
C1756      H1768   1.082       .  S
C1757      C2098   1.484       .  S
C1758      C2078   1.479       .  S
C1759      C2088   1.481       .  S
C1760      C2108   1.478       .  S
N1771      N1772   1.323       .  A
N1771      N1777   1.313       .  A
N1771     Mn1800   2.202       .  S
N1772      C1779   1.355       .  A
N1773      N1775   1.313       .  A
N1773     Mn1789   2.185   1_455  S
N1774      C1780   1.349       .  A
N1775     Mn1800   2.216   1_455  S
N1776      C1780   1.357       .  A
N1777      N1778   1.317       .  A
N1777     Mn1789   2.185       .  S
N1778      C1779   1.350       .  A
C1779      C2111   1.471       .  S
C1780      C2101   1.477       .  S
N1781      N1787   1.313       .  A
N1781     Mn1811   2.218   1_455  S
N1782      C1790   1.359       .  A
N1783      N1784   1.312       .  A
N1783      N1785   1.314       .  A
N1783     Mn1789   2.169       .  S
N1784      C1791   1.346       .  A
N1785      N1786   1.328       .  A
N1785     Mn1811   2.228       .  S
N1786      C1791   1.361       .  A
N1787     Mn1789   2.173   1_455  S
N1788      C1790   1.348       .  A
Mn1789    Cl1813   2.527       .  S
C1790      C2141   1.478       .  S
C1791      C2151   1.480       .  S
N1792      N1793   1.317       .  A
N1792      N1798   1.316       .  A
N1793      C1801   1.349       .  A
N1794      N1796   1.318       .  A
N1794      N1795   1.322       .  A
N1794     Mn1812   2.221       .  S
N1795      C1802   1.357       .  A
N1796      N1797   1.321       .  A
N1796     Mn1800   2.208       .  S
N1797      C1802   1.353       .  A
N1798      N1799   1.320       .  A
N1799      C1801   1.356       .  A
Mn1800    Cl1813   2.555       .  S
C1801      C2048   1.466       .  S
C1802      C2068   1.483       .  S
N1803      N1804   1.321       .  A
N1803      N1809   1.318       .  A
N1803     Mn1811   2.205       .  S
N1804      C1814   1.353       .  A
N1805      N1806   1.321       .  A
N1805      N1807   1.317       .  A
N1806      C1815   1.357       .  A
N1807      N1808   1.319       .  A
N1808      C1815   1.353       .  A
N1809      N1810   1.321       .  A
N1809     Mn1812   2.217       .  S
N1810      C1814   1.355       .  A
Mn1811    Cl1813   2.556       .  S
Mn1812    Cl1813   2.541       .  S
C1814      C2058   1.480       .  S
C1815      C2038   1.478       .  S
N1816      H1848   1.041       .  S
N1816      C1821   1.355       .  A
N1816      C1820   1.356       .  A
N1817      C1824   1.353       .  A
N1817      C1825   1.352       .  A
N1818      H1849   1.041       .  S
N1818      C1823   1.355       .  A
N1818      C1822   1.352       .  A
N1819      C1826   1.350       .  A
N1819      C1827   1.351       .  A
C1820      C1828   1.385       .  A
C1820      C1836   1.415       .  A
C1821      C1837   1.421       .  A
C1821      C1829   1.388       .  A
C1822      C1830   1.387       .  A
C1822      C1839   1.415       .  A
C1823      C1838   1.415       .  A
C1823      C1831   1.387       .  A
C1824      C1836   1.414       .  A
C1824      C1832   1.386       .  A
C1825      C1839   1.415       .  A
C1825      C1833   1.387       .  A
C1826      C1834   1.387       .  A
C1826      C1837   1.415       .  A
C1827      C1835   1.382       .  A
C1827      C1838   1.406       .  A
C1828      C1829   1.372       .  A
C1828      H1840   1.083       .  S
C1829      H1841   1.082       .  S
C1830      C1831   1.377       .  A
C1830      H1842   1.082       .  S
C1831      H1843   1.082       .  S
C1832      C1833   1.364       .  A
C1832      H1844   1.081       .  S
C1833      H1845   1.081       .  S
C1834      C1835   1.370       .  A
C1834      H1846   1.082       .  S
C1835      H1847   1.082       .  S
C1836      C2171   1.490       .  S
C1837      C2161   1.524       .  S
C1838      C2041   1.493       .  S
C1839      C2051   1.484       .  S
N1850      H1882   1.038       .  S
N1850      C1855   1.354       .  A
N1850      C1854   1.353       .  A
N1851      C1858   1.352       .  A
N1851      C1859   1.352       .  A
N1852      H1883   1.041       .  S
N1852      C1857   1.354       .  A
N1852      C1856   1.354       .  A
N1853      C1860   1.352       .  A
N1853      C1861   1.352       .  A
C1854      C1862   1.386       .  A
C1854      C1870   1.414       .  A
C1855      C1871   1.416       .  A
C1855      C1863   1.387       .  A
C1856      C1864   1.386       .  A
C1856      C1873   1.416       .  A
C1857      C1872   1.417       .  A
C1857      C1865   1.387       .  A
C1858      C1870   1.414       .  A
C1858      C1866   1.386       .  A
C1859      C1873   1.415       .  A
C1859      C1867   1.386       .  A
C1860      C1868   1.386       .  A
C1860      C1871   1.416       .  A
C1861      C1869   1.387       .  A
C1861      C1872   1.417       .  A
C1862      C1863   1.376       .  A
C1862      H1874   1.082       .  S
C1863      H1875   1.082       .  S
C1864      C1865   1.377       .  A
C1864      H1876   1.082       .  S
C1865      H1877   1.082       .  S
C1866      C1867   1.375       .  A
C1866      H1878   1.082       .  S
C1867      H1879   1.082       .  S
C1868      C1869   1.376       .  A
C1868      H1880   1.082       .  S
C1869      H1881   1.082       .  S
C1870      C2061   1.492       .  S
C1871      C2181   1.497       .  S
C1872      C2188   1.498       .  S
C1873      C2071   1.496       .  S
N1884      H1916   1.039       .  S
N1884      C1889   1.354       .  A
N1884      C1888   1.357       .  A
N1885      C1892   1.350       .  A
N1885      C1893   1.349       .  A
N1886      H1917   1.041       .  S
N1886      C1891   1.353       .  A
N1886      C1890   1.354       .  A
N1887      C1894   1.353       .  A
N1887      C1895   1.354       .  A
C1888      C1896   1.388       .  A
C1888      C1904   1.423       .  A
C1889      C1905   1.415       .  A
C1889      C1897   1.386       .  A
C1890      C1898   1.387       .  A
C1890      C1907   1.415       .  A
C1891      C1906   1.417       .  A
C1891      C1899   1.388       .  A
C1892      C1904   1.415       .  A
C1892      C1900   1.387       .  A
C1893      C1907   1.406       .  A
C1893      C1901   1.382       .  A
C1894      C1902   1.386       .  A
C1894      C1905   1.417       .  A
C1895      C1903   1.387       .  A
C1895      C1906   1.419       .  A
C1896      C1897   1.372       .  A
C1896      H1908   1.082       .  S
C1897      H1909   1.083       .  S
C1898      C1899   1.378       .  A
C1898      H1910   1.082       .  S
C1899      H1911   1.082       .  S
C1900      C1901   1.372       .  A
C1900      H1912   1.082       .  S
C1901      H1913   1.083       .  S
C1902      C1903   1.367       .  A
C1902      H1914   1.081       .  S
C1903      H1915   1.081       .  S
C1904      C2201   1.528       .  S
C1905      C2211   1.487       .  S
C1906      C2028   1.492       .  S
C1907      C2021   1.490       .  S
N1918      H1950   1.046       .  S
N1918      C1923   1.350       .  A
N1918      C1922   1.354       .  A
N1919      C1926   1.353       .  A
N1919      C1927   1.350       .  A
N1920      H1951   1.044       .  S
N1920      C1925   1.353       .  A
N1920      C1924   1.352       .  A
N1921      C1928   1.351       .  A
N1921      C1929   1.353       .  A
C1922      C1930   1.387       .  A
C1922      C1938   1.415       .  A
C1923      C1939   1.412       .  A
C1923      C1931   1.386       .  A
C1924      C1932   1.388       .  A
C1924      C1941   1.416       .  A
C1925      C1940   1.414       .  A
C1925      C1933   1.386       .  A
C1926      C1938   1.414       .  A
C1926      C1934   1.384       .  A
C1927      C1941   1.416       .  A
C1927      C1935   1.388       .  A
C1928      C1936   1.386       .  A
C1928      C1939   1.413       .  A
C1929      C1937   1.386       .  A
C1929      C1940   1.415       .  A
C1930      C1931   1.375       .  A
C1930      H2714   1.082       .  S
C1931      H2715   1.082       .  S
C1932      C1933   1.378       .  A
C1932      H1944   1.082       .  S
C1933      H1945   1.082       .  S
C1934      C1935   1.375       .  A
C1934      H1946   1.082       .  S
C1935      H1947   1.082       .  S
C1936      C1937   1.375       .  A
C1936      H1948   1.082       .  S
C1937      H1949   1.082       .  S
C1938      C2218   1.501       .  S
C1939      C1998   1.486       .  S
C1940      C2008   1.497       .  S
C1941      C2231   1.494       .  S
H1942      C2702   1.082       .  S
H1943      C2703   1.082       .  S
N1952      N1953   1.327       .  A
N1952      N1958   1.313       .  A
N1952     Mn1981   2.222       .  S
N1953      C1960   1.360       .  A
N1954      N1956   1.313       .  A
N1954     Mn1970   2.170   1_455  S
N1955      C1961   1.347       .  A
N1956     Mn1981   2.226   1_455  S
N1957      C1961   1.360       .  A
N1958      N1959   1.313       .  A
N1958     Mn1970   2.169       .  S
N1959      C1960   1.347       .  A
C1960      C2091   1.479       .  S
C1961      C2081   1.480       .  S
N1962      N1968   1.313       .  A
N1962     Mn1992   2.212   1_455  S
N1963      C1971   1.356       .  A
N1964      N1965   1.314       .  A
N1964      N1966   1.313       .  A
N1964     Mn1970   2.173       .  S
N1965      C1972   1.347       .  A
N1966      N1967   1.327       .  A
N1966     Mn1992   2.221       .  S
N1967      C1972   1.360       .  A
N1968     Mn1970   2.181   1_455  S
N1969      C1971   1.350       .  A
Mn1970    Cl1994   2.532       .  S
C1971      C2121   1.473       .  S
C1972      C2131   1.477       .  S
N1973      N1974   1.319       .  A
N1973      N1979   1.317       .  A
N1974      C1982   1.351       .  A
N1975      N1977   1.318       .  A
N1975      N1976   1.323       .  A
N1975     Mn1993   2.223       .  S
N1976      C1983   1.357       .  A
N1977      N1978   1.321       .  A
N1977     Mn1981   2.210       .  S
N1978      C1983   1.353       .  A
N1979      N1980   1.320       .  A
N1980      C1982   1.355       .  A
Mn1981    Cl1994   2.551       .  S
C1982      C2031   1.471       .  S
C1983      C2011   1.485       .  S
N1984      N1985   1.319       .  A
N1984      N1990   1.318       .  A
N1984     Mn1992   2.199       .  S
N1985      C1995   1.351       .  A
N1986      N1987   1.322       .  A
N1986      N1988   1.317       .  A
N1987      C1996   1.357       .  A
N1988      N1989   1.319       .  A
N1989      C1996   1.352       .  A
N1990      N1991   1.321       .  A
N1990     Mn1993   2.212       .  S
N1991      C1995   1.355       .  A
Mn1992    Cl1994   2.553       .  S
Mn1993    Cl1994   2.546       .  S
C1995      C2001   1.474       .  S
C1996      C2018   1.478       .  S
C1997      C1998   1.405       .  A
C1997      C2002   1.397   1_545  A
C1997      H2003   1.083       .  S
C1998      C1999   1.403       .  A
C1999      C2772   1.397       .  A
C1999      H2004   1.083       .  S
C2000      C2771   1.397       .  A
C2000      C2001   1.404       .  A
C2000      H2005   1.083       .  S
C2001      C2774   1.404       .  A
C2002      C2773   1.404       .  A
C2002      H2006   1.083       .  S
C2007      C2008   1.406       .  A
C2007      C2012   1.402       .  A
C2007      H2013   1.083       .  S
C2008      C2009   1.406       .  A
C2009      C2010   1.400       .  A
C2009      H2014   1.083       .  S
C2010      C2011   1.405       .  A
C2010      H2015   1.083       .  S
C2011      C2012   1.407       .  A
C2012      H2016   1.083       .  S
C2017      C2018   1.403       .  A
C2017      C2794   1.396       .  A
C2017      H2023   1.083       .  S
C2018      C2791   1.407       .  A
C2019      C2790   1.407   1_545  A
C2019      C2020   1.401       .  A
C2019      H2024   1.083       .  S
C2020      C2021   1.404       .  A
C2020      H2025   1.083       .  S
C2021      C2022   1.406       .  A
C2022      C2789   1.396   1_545  A
C2022      H2026   1.083       .  S
C2027      C2028   1.406       .  A
C2027      C2032   1.400       .  A
C2027      H2033   1.083       .  S
C2028      C2029   1.405       .  A
C2029      C2030   1.395       .  A
C2029      H2034   1.083       .  S
C2030      C2031   1.403       .  A
C2030      H2035   1.083       .  S
C2031      C2032   1.403       .  A
C2032      H2036   1.083       .  S
C2037      C2810   1.403       .  A
C2037      C2042   1.396       .  A
C2037      H2043   1.083       .  S
C2038      C2809   1.403       .  A
C2038      C2039   1.406   1_545  A
C2039      C2812   1.401       .  A
C2039      H2044   1.083       .  S
C2040      C2811   1.401       .  A
C2040      C2041   1.405       .  A
C2040      H2817   1.083       .  S
C2041      C2042   1.406       .  A
C2042      H2046   1.083       .  S
H2045      C2812   1.083       .  S
C2047      C2048   1.402       .  A
C2047      C2052   1.398       .  A
C2047      H2053   1.083       .  S
C2048      C2049   1.402       .  A
C2049      C2050   1.395       .  A
C2049      H2054   1.083       .  S
C2050      C2051   1.403       .  A
C2050      H2055   1.083       .  S
C2051      C2052   1.403       .  A
C2052      H2056   1.083       .  S
C2057      C2058   1.405   1_565  A
C2057      C2834   1.400       .  A
C2057      H2063   1.083       .  S
C2058      C2059   1.405       .  A
C2059      C2832   1.398   1_545  A
C2059      H2064   1.083       .  S
C2060      C2831   1.398       .  A
C2060      C2061   1.405       .  A
C2060      H2065   1.083       .  S
C2061      C2062   1.405       .  A
C2062      C2829   1.400       .  A
C2062      H2066   1.083       .  S
C2067      C2068   1.405       .  A
C2067      C2072   1.399       .  A
C2067      H2073   1.083       .  S
C2068      C2069   1.406       .  A
C2069      C2070   1.402       .  A
C2069      H2074   1.083       .  S
C2070      C2071   1.406       .  A
C2070      H2075   1.083       .  S
C2071      C2072   1.405       .  A
C2072      H2076   1.083       .  S
C2077      C2078   1.405       .  A
C2077      C2082   1.405       .  A
C2077      H2083   1.083       .  S
C2078      C2079   1.397       .  A
C2079      C2080   1.391       .  A
C2079      H2084   1.084       .  S
C2080      C2081   1.407       .  A
C2080      H2085   1.083       .  S
C2081      C2082   1.406       .  A
C2082      H2086   1.083       .  S
C2087      C2088   1.397       .  A
C2087      C2092   1.390       .  A
C2087      H2093   1.084       .  S
C2088      C2089   1.406       .  A
C2089      C2090   1.406       .  A
C2089      H2094   1.083       .  S
C2090      C2091   1.406       .  A
C2090      H2095   1.083       .  S
C2091      C2092   1.407       .  A
C2092      H2096   1.083       .  S
C2097      C2098   1.405       .  A
C2097      C2102   1.404       .  A
C2097      H2103   1.083       .  S
C2098      C2099   1.401       .  A
C2099      C2100   1.396       .  A
C2099      H2104   1.083       .  S
C2100      C2101   1.405       .  A
C2100      H2105   1.083       .  S
C2101      C2102   1.404       .  A
C2102      H2106   1.083       .  S
C2107      C2108   1.403       .  A
C2107      C2112   1.401       .  A
C2107      H2113   1.083       .  S
C2108      C2109   1.400       .  A
C2109      C2110   1.393       .  A
C2109      H2114   1.083       .  S
C2110      C2111   1.404       .  A
C2110      H2115   1.083       .  S
C2111      C2112   1.404       .  A
C2112      H2116   1.083       .  S
C2117      C2118   1.405       .  A
C2117      C2122   1.402       .  A
C2117      H2123   1.083       .  S
C2118      C2119   1.400       .  A
C2119      C2120   1.395       .  A
C2119      H2124   1.083       .  S
C2120      C2121   1.404       .  A
C2120      H2125   1.083       .  S
C2121      C2122   1.404       .  A
C2122      H2126   1.083       .  S
C2127      C2128   1.406       .  A
C2127      C2132   1.405       .  A
C2127      H2905   1.083       .  S
C2128      C2129   1.399       .  A
C2129      C2130   1.392       .  A
C2129      H2134   1.084       .  S
C2130      C2131   1.406       .  A
C2130      H2135   1.083       .  S
C2131      C2132   1.404       .  A
C2132      H2136   1.083       .  S
H2133      C2899   1.083   1_545  S
C2137      C2138   1.397       .  A
C2137      C2142   1.391       .  A
C2137      H2143   1.084       .  S
C2138      C2139   1.404       .  A
C2139      C2140   1.404       .  A
C2139      H2916   1.083   1_545  S
C2140      C2141   1.405       .  A
C2140      H2917   1.083       .  S
C2141      C2142   1.407       .  A
C2142      H2146   1.083       .  S
H2144      C2911   1.083       .  S
H2145      C2912   1.083       .  S
C2147      C2148   1.397       .  A
C2147      C2152   1.390       .  A
C2147      H2153   1.084       .  S
C2148      C2149   1.406       .  A
C2149      C2150   1.406       .  A
C2149      H2154   1.083   1_545  S
C2150      C2151   1.406       .  A
C2150      H2155   1.083       .  S
C2151      C2152   1.407       .  A
C2152      H2156   1.083       .  S
C2157      C2930   1.401       .  A
C2157      C2162   1.395       .  A
C2157      H2163   1.083       .  S
C2158      C2929   1.401   1_545  A
C2158      C2159   1.397       .  A
C2159      C2160   1.396       .  A
C2159      H2164   1.083       .  S
C2160      C2933   1.417   1_545  A
C2160      H2165   1.076       .  S
C2161      C2932   1.417       .  A
C2161      C2162   1.414       .  A
C2162      H2166   1.078       .  S
C2167      C2168   1.405       .  A
C2167      C2172   1.397       .  A
C2167      H2173   1.083       .  S
C2168      C2169   1.402       .  A
C2169      C2170   1.399       .  A
C2169      H2174   1.083       .  S
C2170      C2171   1.404       .  A
C2170      H2175   1.083       .  S
C2171      C2172   1.405       .  A
C2172      H2176   1.083       .  S
C2177      C2950   1.403       .  A
C2177      C2182   1.404       .  A
C2177      H2183   1.083       .  S
C2178      C2949   1.403       .  A
C2178      C2179   1.404   1_545  A
C2179      C2952   1.397       .  A
C2179      H2184   1.083       .  S
C2180      C2951   1.397       .  A
C2180      C2181   1.404       .  A
C2180      H2185   1.083       .  S
C2181      C2182   1.409       .  A
C2182      H2186   1.083       .  S
C2187      C2188   1.405       .  A
C2187      C2192   1.397       .  A
C2187      H2193   1.083       .  S
C2188      C2189   1.409       .  A
C2189      C2190   1.403       .  A
C2189      H2194   1.083       .  S
C2190      C2191   1.402       .  A
C2190      H2195   1.083       .  S
C2191      C2192   1.405       .  A
C2192      H2196   1.083       .  S
C2197      C2198   1.399       .  A
C2197      C2202   1.399       .  A
C2197      H2203   1.083       .  S
C2198      C2971   1.400       .  A
C2199      C2970   1.400   1_545  A
C2199      C2200   1.397       .  A
C2199      H2204   1.083       .  S
C2200      C2201   1.416       .  A
C2200      H2205   1.079       .  S
C2201      C2974   1.418   1_545  A
C2202      C2973   1.418       .  A
C2202      H2206   1.075       .  S
C2207      C2208   1.404       .  A
C2207      C2212   1.395       .  A
C2207      H2213   1.083       .  S
C2208      C2209   1.403       .  A
C2209      C2210   1.401       .  A
C2209      H2214   1.083       .  S
C2210      C2211   1.405       .  A
C2210      H2215   1.083       .  S
C2211      C2212   1.402       .  A
C2212      H2216   1.083       .  S
C2217      C2218   1.410       .  A
C2217      C2994   1.405   1_545  A
C2217      H2223   1.083   1_545  S
C2218      C2219   1.405       .  A
C2219      C2992   1.399       .  A
C2219      H2224   1.083       .  S
C2220      C2991   1.399       .  A
C2220      C2221   1.406       .  A
C2220      H2225   1.083       .  S
C2221      C2222   1.403       .  A
C2222      C2989   1.405       .  A
C2222      H2226   1.083       .  S
C2227      C2228   1.402       .  A
C2227      C2232   1.402       .  A
C2227      H2233   1.083       .  S
C2228      C2229   1.404       .  A
C2229      C2230   1.394       .  A
C2229      H2234   1.083       .  S
C2230      C2231   1.405       .  A
C2230      H2235   1.083       .  S
C2231      C2232   1.408       .  A
C2232      H2236   1.083       .  S
C2237      C2238   1.406       .  A
C2237      C2242   1.405       .  A
C2237      H2243   1.083       .  S
C2238      C2239   1.400       .  A
C2239      C2240   1.393       .  A
C2239      H2244   1.083       .  S
C2240      C2241   1.406       .  A
C2240      H2245   1.083       .  S
C2241      C2242   1.405       .  A
C2242      H2246   1.083       .  S
C2247      C2248   1.405       .  A
C2247      C2252   1.403       .  A
C2247      H2253   1.083       .  S
C2248      C2249   1.399       .  A
C2249      C2250   1.393       .  A
C2249      H2254   1.084       .  S
C2250      C2251   1.405       .  A
C2250      H2255   1.082       .  S
C2251      C2252   1.403       .  A
C2252      H2256   1.083       .  S
C2257      C2258   1.405       .  A
C2257      C2262   1.406       .  A
C2257      H2263   1.083       .  S
C2258      C2259   1.399       .  A
C2259      C2260   1.393       .  A
C2259      H2264   1.084       .  S
C2260      C2261   1.408       .  A
C2260      H2265   1.083       .  S
C2261      C2262   1.406       .  A
C2262      H2266   1.083       .  S
C2267      C2268   1.404       .  A
C2267      C2272   1.404       .  A
C2267      H2273   1.083       .  S
C2268      C2269   1.399       .  A
C2269      C2270   1.393       .  A
C2269      H2274   1.084       .  S
C2270      C2271   1.405       .  A
C2270      H2275   1.083       .  S
C2271      C2272   1.407       .  A
C2272      H2276   1.083       .  S
C2277      C2278   1.398       .  A
C2277      C2282   1.390       .  A
C2277      H2283   1.084       .  S
C2278      C2279   1.407       .  A
C2279      C2280   1.409       .  A
C2279      H2284   1.083   1_545  S
C2280      C2281   1.407       .  A
C2280      H2285   1.083       .  S
C2281      C2282   1.407       .  A
C2282      H2286   1.083       .  S
C2287      C2288   1.406       .  A
C2287      C2292   1.406       .  A
C2287      H2293   1.083   1_545  S
C2288      C2289   1.398       .  A
C2289      C2290   1.390       .  A
C2289      H2294   1.084       .  S
C2290      C2291   1.406       .  A
C2290      H2295   1.082       .  S
C2291      C2292   1.406       .  A
C2292      H2296   1.083       .  S
C2297      C2298   1.400       .  A
C2297      C2302   1.394       .  A
C2297      H2303   1.083       .  S
C2298      C2299   1.405       .  A
C2299      C2300   1.403       .  A
C2299      H2304   1.083       .  S
C2300      C2301   1.403       .  A
C2300      H2305   1.083       .  S
C2301      C2302   1.405       .  A
C2302      H2306   1.083       .  S
C2307      C2308   1.404       .  A
C2307      C2312   1.401       .  A
C2307      H3085   1.083       .  S
C2308      C2309   1.400       .  A
C2309      C2310   1.394       .  A
C2309      H2314   1.083       .  S
C2310      C2311   1.405       .  A
C2310      H2315   1.083       .  S
C2311      C2312   1.402       .  A
C2312      H3088   1.083       .  S
H2313      C3079   1.083   1_545  S
H2316      C3084   1.083   1_545  S
N2317      H2349   1.043   1_565  S
N2317      C2321   1.353       .  A
N2318      C2326   1.350       .  A
N2319      H2350   1.043       .  S
N2319      C2324   1.353       .  A
N2320      C2328   1.352       .  A
C2321      C2329   1.389       .  A
C2321      C2337   1.418       .  A
C2322      C2338   1.415       .  A
C2322      C2330   1.387       .  A
C2323      C2331   1.389       .  A
C2323      C2340   1.419       .  A
C2324      C2339   1.416       .  A
C2324      C2332   1.387       .  A
C2325      C2337   1.412       .  A
C2325      C2333   1.386       .  A
C2326      C2340   1.413       .  A
C2326      C2334   1.386       .  A
C2327      C2335   1.385       .  A
C2327      C2338   1.412       .  A
C2328      C2336   1.386       .  A
C2328      C2339   1.414       .  A
C2329      H2341   1.082       .  S
C2330      H2342   1.082       .  S
C2331      H2343   1.082       .  S
C2332      H2344   1.083       .  S
C2333      H2345   1.082       .  S
C2334      H2346   1.082       .  S
C2335      H2347   1.082       .  S
C2336      H2348   1.082       .  S
C2337      C3080   1.481       .  S
C2338      C3060   1.483       .  S
C2339      C3050   1.487       .  S
C2340      C3070   1.484       .  S
N2351      H2383   1.036       .  S
N2351      C2356   1.354       .  A
N2351      C2355   1.356       .  A
N2352      C2360   1.350       .  A
N2353      H2384   1.038       .  S
N2353      C2358   1.353       .  A
N2353      C2357   1.354       .  A
N2354      C2362   1.352       .  A
C2355      C2363   1.389       .  A
C2355      C2371   1.422       .  A
C2356      C2372   1.417       .  A
C2356      C2364   1.386       .  A
C2357      C2365   1.389       .  A
C2357      C2374   1.419       .  A
C2358      C2373   1.413       .  A
C2358      C2366   1.385       .  A
C2359      C2371   1.412       .  A
C2359      C2367   1.386       .  A
C2360      C2374   1.412       .  A
C2360      C2368   1.386       .  A
C2361      C2369   1.386       .  A
C2361      C2372   1.413       .  A
C2362      C2370   1.385       .  A
C2362      C2373   1.412       .  A
C2363      C2364   1.373       .  A
C2363      H2375   1.082       .  S
C2364      H2376   1.082       .  S
C2365      C2366   1.372       .  A
C2365      H2377   1.082       .  S
C2366      H2378   1.082       .  S
C2367      H2379   1.082       .  S
C2368      H2380   1.082       .  S
C2369      H2381   1.082       .  S
C2370      H2382   1.082       .  S
C2371      C3010   1.486       .  S
C2372      C3030   1.485       .  S
C2373      C3040   1.482       .  S
C2374      C3020   1.482       .  S
N2385      N2386   1.325       .  A
N2385      N2391   1.313       .  A
N2385     Mn2414   2.212       .  S
N2386      C2393   1.357       .  A
N2387      N2389   1.313       .  A
N2387      N2388   1.315       .  A
N2387     Mn2403   2.172       .  S
N2388      C2394   1.347       .  A
N2389      N2390   1.328       .  A
N2389     Mn2414   2.229       .  S
N2390      C2394   1.361       .  A
N2391      N2392   1.316       .  A
N2391     Mn2403   2.182       .  S
N2392      C2393   1.350       .  A
C2393      C3043   1.479       .  S
C2394      C3033   1.483       .  S
N2395      N2401   1.314       .  A
N2395      N2396   1.326       .  A
N2395     Mn2425   2.218       .  S
N2396      C2404   1.358       .  A
N2397      N2398   1.315       .  A
N2397      N2399   1.314       .  A
N2397     Mn2403   2.176       .  S
N2398      C2405   1.347       .  A
N2399      N2400   1.324       .  A
N2399     Mn2425   2.211       .  S
N2400      C2405   1.356       .  A
N2401      N2402   1.316       .  A
N2401     Mn2403   2.177       .  S
N2402      C2404   1.347       .  A
Mn2403    Cl2427   2.531       .  S
C2404      C3073   1.475       .  S
C2405      C3083   1.470       .  S
N2406      N2407   1.320       .  A
N2406      N2412   1.318       .  A
N2406     Mn2414   2.190       .  S
N2407      C2415   1.351       .  A
N2408      N2410   1.319       .  A
N2408      N2409   1.323       .  A
N2408     Mn2426   2.218       .  S
N2409      C2416   1.355       .  A
N2410      N2411   1.318       .  A
N2410     Mn2414   2.201       .  S
N2411      C2416   1.351       .  A
N2412      N2413   1.320       .  A
N2412     Mn2426   2.220       .  S
N2413      C2415   1.355       .  A
Mn2414    Cl2427   2.554       .  S
C2415      C2980   1.472       .  S
C2416      C3000   1.475       .  S
N2417      N2418   1.319       .  A
N2417      N2423   1.318       .  A
N2417     Mn2425   2.202       .  S
N2418      C2428   1.351       .  A
N2419      N2420   1.321       .  A
N2419      N2421   1.317       .  A
N2419     Mn2426   2.217       .  S
N2420      C2429   1.356       .  A
N2421      N2422   1.319       .  A
N2421     Mn2425   2.195       .  S
N2422      C2429   1.353       .  A
N2423      N2424   1.326       .  A
N2423     Mn2426   2.236       .  S
N2424      C2428   1.358       .  A
Mn2425    Cl2427   2.557       .  S
Mn2426    Cl2427   2.539       .  S
C2428      C2993   1.483       .  S
C2429      C2970   1.480       .  S
N2430      N2431   1.326       .  A
N2430      N2436   1.313       .  A
N2430     Mn2459   2.218       .  S
N2431      C2438   1.358       .  A
N2432      N2434   1.314       .  A
N2432      N2433   1.315       .  A
N2432     Mn2448   2.180       .  S
N2433      C2439   1.348       .  A
N2434      N2435   1.327       .  A
N2434     Mn2459   2.223       .  S
N2435      C2439   1.359       .  A
N2436      N2437   1.315       .  A
N2436     Mn2448   2.174       .  S
N2437      C2438   1.347       .  A
C2438      C3023   1.475       .  S
C2439      C3013   1.479       .  S
N2440      N2446   1.312       .  A
N2440      N2441   1.329       .  A
N2440     Mn2470   2.231       .  S
N2441      C2449   1.361       .  A
N2442      N2443   1.314       .  A
N2442      N2444   1.314       .  A
N2442     Mn2448   2.178       .  S
N2443      C2450   1.348       .  A
N2444      N2445   1.327       .  A
N2444     Mn2470   2.217       .  S
N2445      C2450   1.359       .  A
N2446      N2447   1.313       .  A
N2446     Mn2448   2.169       .  S
N2447      C2449   1.347       .  A
Mn2448    Cl2472   2.529       .  S
C2449      C3053   1.484       .  S
C2450      C3063   1.479       .  S
N2451      N2452   1.320       .  A
N2451      N2457   1.317       .  A
N2451     Mn2459   2.199       .  S
N2452      C2460   1.352       .  A
N2453      N2455   1.318       .  A
N2453      N2454   1.324       .  A
N2453     Mn2471   2.224       .  S
N2454      C2461   1.357       .  A
N2455      N2456   1.318       .  A
N2455     Mn2459   2.198       .  S
N2456      C2461   1.351       .  A
N2457      N2458   1.320       .  A
N2457     Mn2471   2.206       .  S
N2458      C2460   1.353       .  A
Mn2459    Cl2472   2.553       .  S
C2460      C2940   1.473       .  S
C2461      C2963   1.477       .  S
N2462      N2463   1.319       .  A
N2462      N2468   1.318       .  A
N2462     Mn2470   2.204       .  S
N2463      C2473   1.352       .  A
N2464      N2465   1.320       .  A
N2464      N2466   1.317       .  A
N2464     Mn2471   2.218       .  S
N2465      C2474   1.356       .  A
N2466      N2467   1.317       .  A
N2466     Mn2470   2.185       .  S
N2467      C2474   1.351       .  A
N2468      N2469   1.324       .  A
N2468     Mn2471   2.218       .  S
N2469      C2473   1.356       .  A
Mn2470    Cl2472   2.554       .  S
Mn2471    Cl2472   2.539       .  S
C2473      C2950   1.478       .  S
C2474      C2930   1.475       .  S
N2475      H2507   1.038       .  S
N2475      C2480   1.353   1_554  A
N2476      C2483   1.351       .  A
N2476      C2484   1.351       .  A
N2477      H2508   1.036       .  S
N2477      C2482   1.355   1_554  A
N2478      C2485   1.350       .  A
N2478      C2486   1.351       .  A
C2479      C2487   1.388       .  A
C2479      C2495   1.417       .  A
C2480      C2496   1.414       .  A
C2480      C2488   1.386       .  A
C2481      C2489   1.390       .  A
C2481      C2498   1.422       .  A
C2482      C2497   1.417       .  A
C2482      C2490   1.386       .  A
C2483      C2495   1.413       .  A
C2483      C2491   1.386       .  A
C2484      C2498   1.415       .  A
C2484      C2492   1.387       .  A
C2485      C2493   1.386       .  A
C2485      C2496   1.409       .  A
C2486      C2494   1.386       .  A
C2486      C2497   1.411       .  A
C2487      H2499   1.082       .  S
C2488      H2500   1.082       .  S
C2489      H2501   1.082       .  S
C2490      H2502   1.082       .  S
C2491      C2492   1.376       .  A
C2491      H2503   1.082       .  S
C2492      H2504   1.082       .  S
C2493      C2494   1.375       .  A
C2493      H2505   1.082       .  S
C2494      H2506   1.082       .  S
C2495      C2890   1.484       .  S
C2496      C2910   1.479       .  S
C2497      C2920   1.483       .  S
C2498      C2900   1.484       .  S
N2509      H2541   1.041       .  S
N2509      C2514   1.352   1_556  A
N2509      C2513   1.354       .  A
N2510      C2517   1.349       .  A
N2510      C2518   1.348       .  A
N2511      H2542   1.040   1_554  S
N2511      C2516   1.353       .  A
N2511      C2515   1.352   1_554  A
N2512      C2519   1.349       .  A
N2512      C2520   1.350       .  A
C2513      C2521   1.389       .  A
C2513      C2529   1.419       .  A
C2514      C2530   1.414       .  A
C2514      C2522   1.387       .  A
C2515      C2523   1.389       .  A
C2515      C2532   1.417       .  A
C2516      C2531   1.411       .  A
C2516      C2524   1.385       .  A
C2517      C2529   1.411       .  A
C2517      C2525   1.386       .  A
C2518      C2532   1.410       .  A
C2518      C2526   1.387       .  A
C2519      C2527   1.387       .  A
C2519      C2530   1.411       .  A
C2520      C2528   1.386       .  A
C2520      C2531   1.409       .  A
C2521      C2522   1.374   1_556  A
C2521      H2533   1.082       .  S
C2522      H2534   1.082       .  S
C2523      C2524   1.374   1_556  A
C2523      H2535   1.082       .  S
C2524      H2536   1.082       .  S
C2525      C2526   1.378       .  A
C2525      H2537   1.082       .  S
C2526      H2538   1.082       .  S
C2527      C2528   1.378       .  A
C2527      H2539   1.082       .  S
C2528      H2540   1.082       .  S
C2529      C2870   1.484       .  S
C2530      C2850   1.479       .  S
C2531      C2860   1.481       .  S
C2532      C2880   1.478       .  S
N2543      N2544   1.323       .  A
N2543      N2549   1.313       .  A
N2543     Mn2572   2.202       .  S
N2544      C2551   1.355       .  A
N2545      N2547   1.313       .  A
N2545     Mn2561   2.185   1_455  S
N2546      C2552   1.349       .  A
N2547     Mn2572   2.216   1_455  S
N2548      C2552   1.357       .  A
N2549      N2550   1.317       .  A
N2549     Mn2561   2.185       .  S
N2550      C2551   1.350       .  A
C2551      C2883   1.471       .  S
C2552      C2873   1.477       .  S
N2553      N2559   1.313       .  A
N2553     Mn2583   2.218   1_455  S
N2554      C2562   1.359       .  A
N2555      N2556   1.312       .  A
N2555      N2557   1.314       .  A
N2555     Mn2561   2.169       .  S
N2556      C2563   1.346       .  A
N2557      N2558   1.328       .  A
N2557     Mn2583   2.228       .  S
N2558      C2563   1.361       .  A
N2559     Mn2561   2.173   1_455  S
N2560      C2562   1.348       .  A
Mn2561    Cl2585   2.527       .  S
C2562      C2913   1.478       .  S
C2563      C2923   1.480       .  S
N2564      N2565   1.317       .  A
N2564      N2570   1.316       .  A
N2565      C2573   1.349       .  A
N2566      N2568   1.318       .  A
N2566      N2567   1.322       .  A
N2566     Mn2584   2.221       .  S
N2567      C2574   1.357       .  A
N2568      N2569   1.321       .  A
N2568     Mn2572   2.208       .  S
N2569      C2574   1.353       .  A
N2570      N2571   1.320       .  A
N2571      C2573   1.356       .  A
Mn2572    Cl2585   2.555       .  S
C2573      C2820   1.466       .  S
C2574      C2840   1.483       .  S
N2575      N2576   1.321       .  A
N2575      N2581   1.318       .  A
N2575     Mn2583   2.205       .  S
N2576      C2586   1.353       .  A
N2577      N2578   1.321       .  A
N2577      N2579   1.317       .  A
N2578      C2587   1.357       .  A
N2579      N2580   1.319       .  A
N2580      C2587   1.353       .  A
N2581      N2582   1.321       .  A
N2581     Mn2584   2.217       .  S
N2582      C2586   1.355       .  A
Mn2583    Cl2585   2.556       .  S
Mn2584    Cl2585   2.541       .  S
C2586      C2830   1.480       .  S
C2587      C2810   1.478       .  S
N2588      H2620   1.041       .  S
N2588      C2593   1.355       .  A
N2588      C2592   1.356       .  A
N2589      C2596   1.353       .  A
N2589      C2597   1.352       .  A
N2590      H2621   1.041       .  S
N2590      C2595   1.355       .  A
N2590      C2594   1.352       .  A
N2591      C2598   1.350       .  A
N2591      C2599   1.351       .  A
C2592      C2600   1.385       .  A
C2592      C2608   1.415       .  A
C2593      C2609   1.421       .  A
C2593      C2601   1.388       .  A
C2594      C2602   1.387       .  A
C2594      C2611   1.415       .  A
C2595      C2610   1.415       .  A
C2595      C2603   1.387       .  A
C2596      C2608   1.414       .  A
C2596      C2604   1.386       .  A
C2597      C2611   1.415       .  A
C2597      C2605   1.387       .  A
C2598      C2606   1.387       .  A
C2598      C2609   1.415       .  A
C2599      C2607   1.382       .  A
C2599      C2610   1.406       .  A
C2600      C2601   1.372       .  A
C2600      H2612   1.083       .  S
C2601      H2613   1.082       .  S
C2602      C2603   1.377       .  A
C2602      H2614   1.082       .  S
C2603      H2615   1.082       .  S
C2604      C2605   1.364       .  A
C2604      H2616   1.081       .  S
C2605      H2617   1.081       .  S
C2606      C2607   1.370       .  A
C2606      H2618   1.082       .  S
C2607      H2619   1.082       .  S
C2608      C2943   1.490       .  S
C2609      C2933   1.524       .  S
C2610      C2813   1.493       .  S
C2611      C2823   1.484       .  S
N2622      H2654   1.038       .  S
N2622      C2627   1.354       .  A
N2622      C2626   1.353       .  A
N2623      C2630   1.352       .  A
N2623      C2631   1.352       .  A
N2624      H2655   1.041       .  S
N2624      C2629   1.354       .  A
N2624      C2628   1.354       .  A
N2625      C2632   1.352       .  A
N2625      C2633   1.352       .  A
C2626      C2634   1.386       .  A
C2626      C2642   1.414       .  A
C2627      C2643   1.416       .  A
C2627      C2635   1.387       .  A
C2628      C2636   1.386       .  A
C2628      C2645   1.416       .  A
C2629      C2644   1.417       .  A
C2629      C2637   1.387       .  A
C2630      C2642   1.414       .  A
C2630      C2638   1.386       .  A
C2631      C2645   1.415       .  A
C2631      C2639   1.386       .  A
C2632      C2640   1.386       .  A
C2632      C2643   1.416       .  A
C2633      C2641   1.387       .  A
C2633      C2644   1.417       .  A
C2634      C2635   1.376       .  A
C2634      H2646   1.082       .  S
C2635      H2647   1.082       .  S
C2636      C2637   1.377       .  A
C2636      H2648   1.082       .  S
C2637      H2649   1.082       .  S
C2638      C2639   1.375       .  A
C2638      H2650   1.082       .  S
C2639      H2651   1.082       .  S
C2640      C2641   1.376       .  A
C2640      H2652   1.082       .  S
C2641      H2653   1.082       .  S
C2642      C2833   1.492       .  S
C2643      C2953   1.497       .  S
C2644      C2960   1.498       .  S
C2645      C2843   1.496       .  S
N2656      H2688   1.039       .  S
N2656      C2661   1.354       .  A
N2656      C2660   1.357       .  A
N2657      C2664   1.350       .  A
N2657      C2665   1.349       .  A
N2658      H2689   1.041       .  S
N2658      C2663   1.353       .  A
N2658      C2662   1.354       .  A
N2659      C2666   1.353       .  A
N2659      C2667   1.354       .  A
C2660      C2668   1.388       .  A
C2660      C2676   1.423       .  A
C2661      C2677   1.415       .  A
C2661      C2669   1.386       .  A
C2662      C2670   1.387       .  A
C2662      C2679   1.415       .  A
C2663      C2678   1.417       .  A
C2663      C2671   1.388       .  A
C2664      C2676   1.415       .  A
C2664      C2672   1.387       .  A
C2665      C2679   1.406       .  A
C2665      C2673   1.382       .  A
C2666      C2674   1.386       .  A
C2666      C2677   1.417       .  A
C2667      C2675   1.387       .  A
C2667      C2678   1.419       .  A
C2668      C2669   1.372       .  A
C2668      H2680   1.082       .  S
C2669      H2681   1.083       .  S
C2670      C2671   1.378       .  A
C2670      H2682   1.082       .  S
C2671      H2683   1.082       .  S
C2672      C2673   1.372       .  A
C2672      H2684   1.082       .  S
C2673      H2685   1.083       .  S
C2674      C2675   1.367       .  A
C2674      H2686   1.081       .  S
C2675      H2687   1.081       .  S
C2676      C2973   1.528       .  S
C2677      C2983   1.487       .  S
C2678      C2800   1.492       .  S
C2679      C2793   1.490       .  S
N2690      H2722   1.046       .  S
N2690      C2695   1.350       .  A
N2690      C2694   1.354       .  A
N2691      C2698   1.353       .  A
N2691      C2699   1.350       .  A
N2692      H2723   1.044       .  S
N2692      C2697   1.353       .  A
N2692      C2696   1.352       .  A
N2693      C2700   1.351       .  A
N2693      C2701   1.353       .  A
C2694      C2702   1.387       .  A
C2694      C2710   1.415       .  A
C2695      C2711   1.412       .  A
C2695      C2703   1.386       .  A
C2696      C2704   1.388       .  A
C2696      C2713   1.416       .  A
C2697      C2712   1.414       .  A
C2697      C2705   1.386       .  A
C2698      C2710   1.414       .  A
C2698      C2706   1.384       .  A
C2699      C2713   1.416       .  A
C2699      C2707   1.388       .  A
C2700      C2708   1.386       .  A
C2700      C2711   1.413       .  A
C2701      C2709   1.386       .  A
C2701      C2712   1.415       .  A
C2702      C2703   1.375       .  A
C2704      C2705   1.378       .  A
C2704      H2716   1.082       .  S
C2705      H2717   1.082       .  S
C2706      C2707   1.375       .  A
C2706      H2718   1.082       .  S
C2707      H2719   1.082       .  S
C2708      C2709   1.375       .  A
C2708      H2720   1.082       .  S
C2709      H2721   1.082       .  S
C2710      C2990   1.501       .  S
C2711      C2770   1.486       .  S
C2712      C2780   1.497       .  S
C2713      C3003   1.494       .  S
N2724      N2725   1.327       .  A
N2724      N2730   1.313       .  A
N2724     Mn2753   2.222       .  S
N2725      C2732   1.360       .  A
N2726      N2728   1.313       .  A
N2726     Mn2742   2.170   1_455  S
N2727      C2733   1.347       .  A
N2728     Mn2753   2.226   1_455  S
N2729      C2733   1.360       .  A
N2730      N2731   1.313       .  A
N2730     Mn2742   2.169       .  S
N2731      C2732   1.347       .  A
C2732      C2863   1.479       .  S
C2733      C2853   1.480       .  S
N2734      N2740   1.313       .  A
N2734     Mn2764   2.212   1_455  S
N2735      C2743   1.356       .  A
N2736      N2737   1.314       .  A
N2736      N2738   1.313       .  A
N2736     Mn2742   2.173       .  S
N2737      C2744   1.347       .  A
N2738      N2739   1.327       .  A
N2738     Mn2764   2.221       .  S
N2739      C2744   1.360       .  A
N2740     Mn2742   2.181   1_455  S
N2741      C2743   1.350       .  A
Mn2742    Cl2766   2.532       .  S
C2743      C2893   1.473       .  S
C2744      C2903   1.477       .  S
N2745      N2746   1.319       .  A
N2745      N2751   1.317       .  A
N2746      C2754   1.351       .  A
N2747      N2749   1.318       .  A
N2747      N2748   1.323       .  A
N2747     Mn2765   2.223       .  S
N2748      C2755   1.357       .  A
N2749      N2750   1.321       .  A
N2749     Mn2753   2.210       .  S
N2750      C2755   1.353       .  A
N2751      N2752   1.320       .  A
N2752      C2754   1.355       .  A
Mn2753    Cl2766   2.551       .  S
C2754      C2803   1.471       .  S
C2755      C2783   1.485       .  S
N2756      N2757   1.319       .  A
N2756      N2762   1.318       .  A
N2756     Mn2764   2.199       .  S
N2757      C2767   1.351       .  A
N2758      N2759   1.322       .  A
N2758      N2760   1.317       .  A
N2759      C2768   1.357       .  A
N2760      N2761   1.319       .  A
N2761      C2768   1.352       .  A
N2762      N2763   1.321       .  A
N2762     Mn2765   2.212       .  S
N2763      C2767   1.355       .  A
Mn2764    Cl2766   2.553       .  S
Mn2765    Cl2766   2.546       .  S
C2767      C2773   1.474       .  S
C2768      C2790   1.478       .  S
C2769      C2770   1.405       .  A
C2769      C2774   1.397       .  A
C2769      H2775   1.083       .  S
C2770      C2771   1.403       .  A
C2771      H2776   1.083       .  S
C2772      C2773   1.404   1_545  A
C2772      H2777   1.083       .  S
C2774      H2778   1.083       .  S
C2779      C2780   1.406       .  A
C2779      C2784   1.402       .  A
C2779      H2785   1.083       .  S
C2780      C2781   1.406       .  A
C2781      C2782   1.400       .  A
C2781      H2786   1.083       .  S
C2782      C2783   1.405       .  A
C2782      H2787   1.083       .  S
C2783      C2784   1.407       .  A
C2784      H2788   1.083       .  S
C2789      C2790   1.403       .  A
C2789      H2795   1.083       .  S
C2791      C2792   1.401       .  A
C2791      H2796   1.083       .  S
C2792      C2793   1.404       .  A
C2792      H2797   1.083       .  S
C2793      C2794   1.406       .  A
C2794      H2798   1.083       .  S
C2799      C2800   1.406       .  A
C2799      C2804   1.400       .  A
C2799      H2805   1.083       .  S
C2800      C2801   1.405       .  A
C2801      C2802   1.395       .  A
C2801      H2806   1.083       .  S
C2802      C2803   1.403       .  A
C2802      H2807   1.083       .  S
C2803      C2804   1.403       .  A
C2804      H2808   1.083       .  S
C2809      C2814   1.396       .  A
C2809      H2815   1.083       .  S
C2810      C2811   1.406       .  A
C2811      H2816   1.083       .  S
C2812      C2813   1.405       .  A
C2813      C2814   1.406   1_565  A
C2814      H2818   1.083       .  S
C2819      C2820   1.402       .  A
C2819      C2824   1.398       .  A
C2819      H2825   1.083       .  S
C2820      C2821   1.402       .  A
C2821      C2822   1.395       .  A
C2821      H2826   1.083       .  S
C2822      C2823   1.403       .  A
C2822      H2827   1.083       .  S
C2823      C2824   1.403       .  A
C2824      H2828   1.083       .  S
C2829      C2830   1.405       .  A
C2829      H2835   1.083       .  S
C2830      C2831   1.405       .  A
C2831      H2836   1.083       .  S
C2832      C2833   1.405       .  A
C2832      H2837   1.083       .  S
C2833      C2834   1.405       .  A
C2834      H2838   1.083       .  S
C2839      C2840   1.405       .  A
C2839      C2844   1.399       .  A
C2839      H2845   1.083       .  S
C2840      C2841   1.406       .  A
C2841      C2842   1.402       .  A
C2841      H2846   1.083       .  S
C2842      C2843   1.406       .  A
C2842      H2847   1.083       .  S
C2843      C2844   1.405       .  A
C2844      H2848   1.083       .  S
C2849      C2850   1.405       .  A
C2849      C2854   1.405       .  A
C2849      H2855   1.083       .  S
C2850      C2851   1.397       .  A
C2851      C2852   1.391       .  A
C2851      H2856   1.084       .  S
C2852      C2853   1.407       .  A
C2852      H2857   1.083       .  S
C2853      C2854   1.406       .  A
C2854      H2858   1.083       .  S
C2859      C2860   1.397       .  A
C2859      C2864   1.390       .  A
C2859      H2865   1.084       .  S
C2860      C2861   1.406       .  A
C2861      C2862   1.406       .  A
C2861      H2866   1.083       .  S
C2862      C2863   1.406       .  A
C2862      H2867   1.083       .  S
C2863      C2864   1.407       .  A
C2864      H2868   1.083       .  S
C2869      C2870   1.405       .  A
C2869      C2874   1.404       .  A
C2869      H2875   1.083       .  S
C2870      C2871   1.401       .  A
C2871      C2872   1.396       .  A
C2871      H2876   1.083       .  S
C2872      C2873   1.405       .  A
C2872      H2877   1.083       .  S
C2873      C2874   1.404       .  A
C2874      H2878   1.083       .  S
C2879      C2880   1.403       .  A
C2879      C2884   1.401       .  A
C2879      H2885   1.083       .  S
C2880      C2881   1.400       .  A
C2881      C2882   1.393       .  A
C2881      H2886   1.083       .  S
C2882      C2883   1.404       .  A
C2882      H2887   1.083       .  S
C2883      C2884   1.404       .  A
C2884      H2888   1.083       .  S
C2889      C2890   1.405       .  A
C2889      C2894   1.402       .  A
C2889      H2895   1.083   1_565  S
C2890      C2891   1.400       .  A
C2891      C2892   1.395       .  A
C2891      H2896   1.083       .  S
C2892      C2893   1.404       .  A
C2892      H2897   1.083       .  S
C2893      C2894   1.404       .  A
C2894      H2898   1.083   1_565  S
C2899      C2900   1.406       .  A
C2899      C2904   1.405       .  A
C2900      C2901   1.399       .  A
C2901      C2902   1.392       .  A
C2901      H2906   1.084       .  S
C2902      C2903   1.406       .  A
C2902      H2907   1.083       .  S
C2903      C2904   1.404       .  A
C2904      H2908   1.083   1_565  S
C2909      C2910   1.397       .  A
C2909      C2914   1.391       .  A
C2909      H2915   1.084       .  S
C2910      C2911   1.404       .  A
C2911      C2912   1.404       .  A
C2912      C2913   1.405       .  A
C2913      C2914   1.407       .  A
C2914      H2918   1.083       .  S
C2919      C2920   1.397       .  A
C2919      C2924   1.390       .  A
C2919      H2925   1.084       .  S
C2920      C2921   1.406       .  A
C2921      C2922   1.406       .  A
C2921      H2926   1.083       .  S
C2922      C2923   1.406       .  A
C2922      H2927   1.083       .  S
C2923      C2924   1.407       .  A
C2924      H2928   1.083       .  S
C2929      C2934   1.395       .  A
C2929      H2935   1.083       .  S
C2930      C2931   1.397       .  A
C2931      C2932   1.396       .  A
C2931      H2936   1.083       .  S
C2932      H2937   1.076       .  S
C2933      C2934   1.414       .  A
C2934      H2938   1.078       .  S
C2939      C2940   1.405       .  A
C2939      C2944   1.397       .  A
C2939      H2945   1.083       .  S
C2940      C2941   1.402       .  A
C2941      C2942   1.399       .  A
C2941      H2946   1.083       .  S
C2942      C2943   1.404       .  A
C2942      H2947   1.083       .  S
C2943      C2944   1.405       .  A
C2944      H2948   1.083       .  S
C2949      C2954   1.404   1_545  A
C2949      H2955   1.083       .  S
C2950      C2951   1.404       .  A
C2951      H2956   1.083       .  S
C2952      C2953   1.404       .  A
C2952      H2957   1.083       .  S
C2953      C2954   1.409       .  A
C2954      H2958   1.083   1_565  S
C2959      C2960   1.405       .  A
C2959      C2964   1.397       .  A
C2959      H2965   1.083       .  S
C2960      C2961   1.409       .  A
C2961      C2962   1.403       .  A
C2961      H2966   1.083       .  S
C2962      C2963   1.402       .  A
C2962      H2967   1.083       .  S
C2963      C2964   1.405       .  A
C2964      H2968   1.083       .  S
C2969      C2970   1.399       .  A
C2969      C2974   1.399       .  A
C2969      H2975   1.083       .  S
C2971      C2972   1.397       .  A
C2971      H2976   1.083       .  S
C2972      C2973   1.416       .  A
C2972      H2977   1.079       .  S
C2974      H2978   1.075       .  S
C2979      C2980   1.404       .  A
C2979      C2984   1.395       .  A
C2979      H2985   1.083       .  S
C2980      C2981   1.403       .  A
C2981      C2982   1.401       .  A
C2981      H2986   1.083       .  S
C2982      C2983   1.405       .  A
C2982      H2987   1.083       .  S
C2983      C2984   1.402       .  A
C2984      H2988   1.083       .  S
C2989      C2990   1.410       .  A
C2989      H2995   1.083       .  S
C2990      C2991   1.405       .  A
C2991      H2996   1.083       .  S
C2992      C2993   1.406   1_545  A
C2992      H2997   1.083       .  S
C2993      C2994   1.403       .  A
C2994      H2998   1.083       .  S
C2999      C3000   1.402       .  A
C2999      C3004   1.402       .  A
C2999      H3005   1.083       .  S
C3000      C3001   1.404       .  A
C3001      C3002   1.394       .  A
C3001      H3006   1.083       .  S
C3002      C3003   1.405       .  A
C3002      H3007   1.083       .  S
C3003      C3004   1.408       .  A
C3004      H3008   1.083       .  S
C3009      C3010   1.406       .  A
C3009      C3014   1.405       .  A
C3009      H3015   1.083       .  S
C3010      C3011   1.400       .  A
C3011      C3012   1.393       .  A
C3011      H3016   1.083       .  S
C3012      C3013   1.406       .  A
C3012      H3017   1.083       .  S
C3013      C3014   1.405       .  A
C3014      H3018   1.083       .  S
C3019      C3020   1.405       .  A
C3019      C3024   1.403       .  A
C3019      H3025   1.083       .  S
C3020      C3021   1.399       .  A
C3021      C3022   1.393       .  A
C3021      H3026   1.084       .  S
C3022      C3023   1.405       .  A
C3022      H3027   1.082       .  S
C3023      C3024   1.403       .  A
C3024      H3028   1.083       .  S
C3029      C3030   1.405       .  A
C3029      C3034   1.406       .  A
C3029      H3035   1.083       .  S
C3030      C3031   1.399       .  A
C3031      C3032   1.393       .  A
C3031      H3036   1.084       .  S
C3032      C3033   1.408       .  A
C3032      H3037   1.083       .  S
C3033      C3034   1.406       .  A
C3034      H3038   1.083       .  S
C3039      C3040   1.404       .  A
C3039      C3044   1.404       .  A
C3039      H3045   1.083       .  S
C3040      C3041   1.399       .  A
C3041      C3042   1.392       .  A
C3041      H3046   1.084       .  S
C3042      C3043   1.405       .  A
C3042      H3047   1.083       .  S
C3043      C3044   1.407       .  A
C3044      H3048   1.083       .  S
C3049      C3050   1.398       .  A
C3049      C3054   1.390       .  A
C3049      H3055   1.084       .  S
C3050      C3051   1.407       .  A
C3051      C3052   1.409       .  A
C3051      H3056   1.083       .  S
C3052      C3053   1.407       .  A
C3052      H3057   1.083       .  S
C3053      C3054   1.407       .  A
C3054      H3058   1.083       .  S
C3059      C3060   1.406       .  A
C3059      C3064   1.406       .  A
C3059      H3065   1.083       .  S
C3060      C3061   1.398       .  A
C3061      C3062   1.390       .  A
C3061      H3066   1.084       .  S
C3062      C3063   1.406       .  A
C3062      H3067   1.082       .  S
C3063      C3064   1.406       .  A
C3064      H3068   1.083       .  S
C3069      C3070   1.400       .  A
C3069      C3074   1.394       .  A
C3069      H3075   1.083       .  S
C3070      C3071   1.405       .  A
C3071      C3072   1.403       .  A
C3071      H3076   1.083   1_565  S
C3072      C3073   1.403       .  A
C3072      H3077   1.083   1_565  S
C3073      C3074   1.405       .  A
C3074      H3078   1.083       .  S
C3079      C3080   1.404       .  A
C3079      C3084   1.401       .  A
C3080      C3081   1.400       .  A
C3081      C3082   1.394       .  A
C3081      H3086   1.083       .  S
C3082      C3083   1.405       .  A
C3082      H3087   1.083       .  S
C3083      C3084   1.402       .  A
