geometry optimzed in LAMMPS
_audit_creation_date              2020-11-30 
_audit_creation_method            'lammps2cif' 
_symmetry_space_group_name_H-M    'P1' 
_symmetry_Int_Tables_number       1 
_symmetry_cell_setting            triclinic 
loop_ 
_symmetry_equiv_pos_as_xyz 
  x,y,z 
_cell_length_a                    42.99118058 
_cell_length_b                    43.092998419350366 
_cell_length_c                    73.01462278723959 
_cell_angle_alpha                 89.79893614673624 
_cell_angle_beta                  90.31298100219038 
_cell_angle_gamma                 119.27587238333946 
loop_ 
_atom_site_label 
_atom_site_type_symbol 
_atom_site_fract_x 
_atom_site_fract_y 
_atom_site_fract_z 
_atom_site_charge 
C1          C  0.33532626  0.16783649  0.57121574     0.46600
H2          H  0.33718889  0.16847394  0.58639665    -0.02500
C3          C  0.33040819  0.16562409  0.53571955     0.46600
H4          H  0.32846560  0.16477661  0.52052128    -0.02500
C5          C  0.37143737  0.18248644  0.56167106    -0.16200
C6          C  0.31259567  0.13019701  0.56371028    -0.15900
C7          C  0.31863835  0.18939443  0.56338072    -0.16300
C8          C  0.36896656  0.18157263  0.54288194    -0.16300
C9          C  0.30991746  0.12868376  0.54486880    -0.15800
C10         C  0.31588080  0.18829831  0.54460813    -0.16200
C11         C  0.16311378  0.33480284  0.49599638     0.46600
H12         H  0.16231018  0.33398649  0.51121167    -0.02500
C13         C  0.16490655  0.33664381  0.46039718     0.46600
H14         H  0.16579285  0.33757311  0.44523855    -0.02500
C15         C  0.17740442  0.31157373  0.48761144    -0.16200
C16         C  0.12633356  0.32184059  0.48700771    -0.15900
C17         C  0.18709150  0.37226193  0.48820182    -0.16300
C18         C  0.17820179  0.31243459  0.46876896    -0.16300
C19         C  0.12722633  0.32291822  0.46816419    -0.15800
C20         C  0.18814846  0.37313606  0.46937438    -0.16200
O21         O  0.17834390  0.37405096  0.63929817    -0.77400
C22         C  0.20715911  0.29496022  0.64921778     0.83700
O23         O  0.08011535  0.28185657  0.67464299    -0.78500
O24         O  0.18121393  0.27959914  0.70595200    -0.80000
O25         O  0.23403530  0.40853887  0.69908806    -0.79800
O26         O  0.19420957  0.41624298  0.66048164    -0.78400
Zn27       Zn  0.15947430  0.32802247  0.65321579     1.55700
O28         O  0.24603357  0.36367689  0.70066225    -0.79800
Cd29       Cd  0.18628639  0.38758585  0.68455257     1.59700
Cd30       Cd  0.12255771  0.30680576  0.69261457     1.59600
O31         O  0.15036512  0.39388635  0.70075219    -0.79800
O32         O  0.16808576  0.33606610  0.67922144    -1.90300
Cd33       Cd  0.20364993  0.32168596  0.68743576     1.59900
O34         O  0.11122911  0.33847791  0.70922104    -0.79800
O35         O  0.22054912  0.30384809  0.66525428    -0.78400
C36         C  0.07905816  0.28292923  0.65724592     0.84100
C37         C  0.19014968  0.40641650  0.64376770     0.83800
O38         O  0.18273513  0.30111692  0.64345673    -0.77400
C39         C  0.25357687  0.39553055  0.70441983     0.84600
O40         O  0.10721325  0.29980171  0.64774036    -0.77500
C41         C  0.12346186  0.37195160  0.71005666     0.84700
C42         C  0.15009165  0.26193743  0.71275011     0.85000
O43         O  0.12523510  0.26889250  0.70878922    -0.79900
C44         C  0.00064115  0.00060266  0.79074010     0.46600
H45         H  0.99815881  0.99930755  0.77557545    -0.02500
C46         C  0.00797106  0.00394379  0.82608869     0.46600
H47         H  0.01100566  0.00537072  0.84123862    -0.02500
C48         C  0.46163516  0.48075767  0.80058656    -0.16200
C49         C  0.02126142  0.48384543  0.79844732    -0.15900
C50         C  0.01993606  0.03873691  0.79806362    -0.16300
C51         C  0.46493960  0.48145217  0.81936532    -0.16300
C52         C  0.02379237  0.48410588  0.81725288    -0.15800
C53         C  0.02410730  0.04074029  0.81683507    -0.16200
C54         C  0.17310095  0.33464684  0.86731714     0.46600
H55         H  0.17513438  0.33487823  0.85213842    -0.02500
C56         C  0.16827927  0.33422907  0.90275770     0.46600
H57         H  0.16592595  0.33425275  0.91788983    -0.02500
C58         C  0.15486055  0.35531094  0.87442315    -0.16200
C59         C  0.15111806  0.29718661  0.87533726    -0.15900
C60         C  0.20949705  0.35081347  0.87724999    -0.16300
C61         C  0.15278193  0.35534622  0.89320402    -0.16300
C62         C  0.14851470  0.29689428  0.89411869    -0.15800
C63         C  0.20662829  0.35035670  0.89605768    -0.16200
C64         C  0.32766632  0.17235042  0.12406498     0.46600
H65         H  0.32501722  0.17601882  0.10917939    -0.02500
C66         C  0.33249945  0.16216770  0.15885780     0.46600
H67         H  0.33487495  0.15808908  0.17371829    -0.02500
C68         C  0.29157427  0.15087741  0.13333462    -0.16200
C69         C  0.34809621  0.15241166  0.12806338    -0.15900
C70         C  0.34713795  0.20709890  0.13496084    -0.16300
C71         C  0.29349299  0.14519310  0.15179105    -0.16300
C72         C  0.35130211  0.14736638  0.14641772    -0.15800
C73         C  0.34937602  0.20197006  0.15345594    -0.16200
C74         C  0.99395684  0.49827219  0.20113850     0.46600
H75         H  0.49123025  0.49766632  0.18590361    -0.02500
C76         C  0.00038205  0.49884159  0.23658821     0.46600
H77         H  0.99984081  0.00052920  0.25136831    -0.02500
C78         C  0.47296625  0.01501484  0.21018976    -0.16200
C79         C  0.47924620  0.46031173  0.20967573    -0.15900
C80         C  0.03254074  0.02034222  0.20790226    -0.16300
C81         C  0.47619019  0.01549233  0.22889203    -0.16300
C82         C  0.48274703  0.46121988  0.22850814    -0.15800
C83         C  0.03470957  0.02082519  0.22673552    -0.16200
O84         O  0.34158449  0.20396549  0.30916430    -0.77400
C85         C  0.36294086  0.11700446  0.31950374     0.83700
O86         O  0.23982173  0.12776196  0.34078572    -0.78500
O87         O  0.31489288  0.09529400  0.37499959    -0.80000
O88         O  0.40492246  0.22451634  0.36875544    -0.79800
O89         O  0.37172521  0.24631018  0.32985012    -0.78400
Zn90       Zn  0.32109182  0.15707554  0.32212368     1.55700
O91         O  0.39573504  0.16924792  0.37293175    -0.79800
Cd92       Cd  0.35920644  0.21650471  0.35419656     1.59700
Cd93       Cd  0.28035010  0.14720525  0.35997631     1.59600
O94         O  0.33192017  0.23422240  0.37095300    -0.79800
O95         O  0.32796763  0.16458537  0.34837146    -1.90300
Cd96       Cd  0.35014307  0.13648558  0.35813700     1.59900
O97         O  0.27820856  0.18673005  0.37472733    -0.79800
O98         O  0.36602442  0.11570210  0.33681982    -0.78400
C99         C  0.23998377  0.12100639  0.32385696     0.84100
C100        C  0.36116411  0.23653532  0.31338901     0.83800
O101        O  0.34642547  0.13174446  0.31223787    -0.77400
C102        C  0.41417286  0.20272583  0.37545998     0.84600
O103        O  0.26886049  0.12931964  0.31537027    -0.77500
C104        C  0.30057417  0.21932797  0.37768372     0.84700
C105        C  0.28427072  0.08746917  0.38131292     0.85000
O106        O  0.26880124  0.10531201  0.37727632    -0.79900
O107        O  0.02999665  0.06375064  0.98114109    -0.77400
C108        C  0.05553698  0.47474588  0.98150574     0.83700
O109        O  0.42215677  0.44976908  0.99448575    -0.78500
O110        O  0.49570998  0.42536881  0.03240585    -0.80000
O111        O  0.06260962  0.04702891  0.04315464    -0.79800
O112        O  0.04617722  0.08904059  0.00860816    -0.78400
Zn113      Zn  0.50932856  0.01045918  0.98559841     1.60200
O114        O  0.06948552  0.00102056  0.03449764    -0.79800
Cd115      Cd  0.02341275  0.04487858  0.02573084     1.59700
Cd116      Cd  0.45119451  0.46778495  0.01869601     1.59600
O117        O  0.48362483  0.04796541  0.04089446    -0.79800
O118        O  0.50291390  0.99956922  0.01151798    -1.90300
Cd119      Cd  0.02750892  0.47337668  0.01976725     1.59900
O120        O  0.43398684  0.99774170  0.03377529    -0.79800
O121        O  0.05033051  0.46238116  0.99773199    -0.78400
C122        C  0.43095187  0.45926163  0.97787311     0.84100
C123        C  0.04484465  0.09130844  0.99124998     0.83800
O124        O  0.04301879  0.49444484  0.97595082    -0.77400
C125        C  0.07839686  0.02852490  0.04428313     0.84600
O126        O  0.46251861  0.48255807  0.97347420    -0.77500
C127        C  0.44995627  0.02758231  0.04207680     0.84700
C128        C  0.46382367  0.41131744  0.03816317     0.85000
O129        O  0.44354828  0.42446312  0.03459288    -0.79900
C130        C  0.16941594  0.07790788  0.28561241     0.19800
C131        C  0.17091858  0.08147903  0.26648240    -0.18300
C132        C  0.13977960  0.06591900  0.25593543    -0.10600
C133        C  0.10639323  0.04619158  0.26436896     0.22000
C134        C  0.10485973  0.04179889  0.28344467    -0.19900
C135        C  0.13600242  0.05757787  0.29401698    -0.10800
C136        C  0.07292237  0.02821187  0.25361348    -0.14900
C137        C  0.06830476  0.04037777  0.23740587    -0.28800
C138        C  0.20335494  0.09493012  0.29613773    -0.03000
C139        C  0.20557354  0.10315085  0.31401892    -0.39600
H140        H  0.19637440  0.09646691  0.25964398     0.13200
H141        H  0.14204916  0.06869306  0.24119860     0.12800
H142        H  0.07943444  0.02610449  0.29018847     0.12300
H143        H  0.13372761  0.05311503  0.30864567     0.12500
H144        H  0.05142126  0.00397019  0.25936954     0.15200
H145        H  0.08959852  0.06477199  0.23168742     0.14000
H146        H  0.22777928  0.10226526  0.28861225     0.11700
H147        H  0.18180139  0.09749613  0.32169372     0.13700
C148        C  0.42637433  0.37664689  0.25744842     0.19800
C149        C  0.39692572  0.34279940  0.25452021    -0.18300
C150        C  0.38496056  0.31696274  0.26838642    -0.10600
C151        C  0.40225214  0.32455250  0.28558903     0.22000
C152        C  0.43107884  0.35870676  0.28861348    -0.19900
C153        C  0.44304039  0.38443188  0.27477487    -0.10800
C154        C  0.39088834  0.29814453  0.30085432    -0.14900
C155        C  0.37144868  0.26279341  0.29834207    -0.28800
C156        C  0.43800146  0.40385820  0.24260388    -0.03000
C157        C  0.47165339  0.43085400  0.24132785    -0.39600
H158        H  0.38316663  0.33630916  0.24143918     0.13200
H159        H  0.36186372  0.29146182  0.26559753     0.12800
H160        H  0.44451647  0.36555416  0.30177390     0.12300
H161        H  0.46484473  0.41060955  0.27791461     0.12500
H162        H  0.40013389  0.30814525  0.31459328     0.15200
H163        H  0.36302163  0.25212591  0.28467163     0.14000
H164        H  0.41835063  0.40175537  0.23252748     0.11700
H165        H  0.49148808  0.43340085  0.25134459     0.13700
C166        C  0.39864389  0.09057219  0.27705709     0.19800
C167        C  0.40566189  0.10273185  0.25887081    -0.18300
C168        C  0.42278973  0.09069377  0.24689931    -0.10600
C169        C  0.43310705  0.06594962  0.25274063     0.22000
C170        C  0.42580966  0.05352101  0.27093136    -0.19900
C171        C  0.40862180  0.06548480  0.28287501    -0.10800
C172        C  0.45202446  0.05459849  0.23957311    -0.14900
C173        C  0.45695988  0.02629072  0.24210146    -0.28800
C174        C  0.38064220  0.10446550  0.28933674    -0.03000
C175        C  0.37963167  0.10138545  0.30775188    -0.39600
H176        H  0.39814482  0.12188097  0.25393209     0.13200
H177        H  0.42800856  0.10079907  0.23299279     0.12800
H178        H  0.43364938  0.03494994  0.27626512     0.12300
H179        H  0.40309607  0.05463025  0.29657969     0.12500
H180        H  0.96103704  0.06982728  0.22681563     0.15200
H181        H  0.44799849  0.01065488  0.25452391     0.14000
H182        H  0.36877971  0.11901176  0.28293561     0.11700
H183        H  0.39259439  0.08850905  0.31467093     0.13700
C184        C  0.41113369  0.33627489  0.07280620     0.19800
C185        C  0.39035420  0.33318200  0.08819400    -0.18300
C186        C  0.37954975  0.30442567  0.10024189    -0.10600
C187        C  0.38933168  0.27815744  0.09705013     0.22000
C188        C  0.40974970  0.28111935  0.08156791    -0.19900
C189        C  0.42047280  0.30972624  0.06955769    -0.10800
C190        C  0.37648148  0.24569600  0.10845381    -0.14900
C191        C  0.36355238  0.24220423  0.12551392    -0.28800
C192        C  0.42204873  0.36702695  0.06023769    -0.03000
C193        C  0.45110669  0.37923243  0.04958570    -0.39600
H194        H  0.38243277  0.35298363  0.09086232     0.13200
H195        H  0.36278809  0.30250230  0.11170217     0.12800
H196        H  0.41702048  0.26093048  0.07859719     0.12300
H197        H  0.43532231  0.31031140  0.05751145     0.12500
H198        H  0.37802793  0.22354424  0.10241361     0.15200
H199        H  0.36488774  0.26497750  0.13234026     0.14000
H200        H  0.40701965  0.38122217  0.06053222     0.11700
H201        H  0.46802792  0.36711689  0.05022880     0.13700
C202        C  0.20142474  0.09501378  0.10920004     0.19800
C203        C  0.18406332  0.06024971  0.10232482    -0.18300
C204        C  0.15648728  0.04991119  0.08952493    -0.10600
C205        C  0.14573304  0.07429105  0.08342459     0.22000
C206        C  0.16203234  0.10854546  0.09097050    -0.19900
C207        C  0.18958078  0.11885189  0.10373945    -0.10800
C208        C  0.11702795  0.06477964  0.06965366    -0.14900
C209        C  0.10772550  0.03838499  0.05746814    -0.28800
C210        C  0.23208145  0.10593970  0.12182329    -0.03000
C211        C  0.25902580  0.13951460  0.12220701    -0.39600
H212        H  0.19230508  0.04126572  0.10660717     0.13200
H213        H  0.14356333  0.02277013  0.08464504     0.12800
H214        H  0.15371083  0.12751323  0.08681778     0.12300
H215        H  0.20147185  0.14548545  0.10934241     0.12500
H216        H  0.10370626  0.08065405  0.06926330     0.15200
H217        H  0.12162984  0.02313433  0.05711588     0.14000
H218        H  0.23383261  0.08573057  0.13000930     0.11700
H219        H  0.25947031  0.15886494  0.11250402     0.13700
C220        C  0.42039543  0.08021118  0.07399250     0.19800
C221        C  0.43130582  0.11640115  0.07663844    -0.18300
C222        C  0.41290133  0.12694298  0.08867131    -0.10600
C223        C  0.38327377  0.10139812  0.09850090     0.22000
C224        C  0.37255166  0.06527221  0.09594705    -0.19900
C225        C  0.39073867  0.05473042  0.08382587    -0.10800
C226        C  0.36475047  0.11132106  0.11258596    -0.14900
C227        C  0.36501654  0.14270209  0.11298717    -0.28800
C228        C  0.44168097  0.07007693  0.06176038    -0.03000
C229        C  0.42827978  0.03802462  0.05358292    -0.39600
H230        H  0.45436740  0.13662410  0.06947884     0.13200
H231        H  0.42270780  0.15509101  0.09066545     0.12800
H232        H  0.35023254  0.04506776  0.10357006     0.12300
H233        H  0.38212227  0.02665671  0.08269549     0.12500
H234        H  0.34996507  0.09172143  0.12309700     0.15200
H235        H  0.37630171  0.16124002  0.10167149     0.14000
H236        H  0.46922001  0.08998005  0.05917179     0.11700
H237        H  0.40028930  0.01861244  0.05514887     0.13700
C238        C  0.39344842  0.09844775  0.17292570     0.19800
C239        C  0.38527819  0.07782806  0.18893290    -0.18300
C240        C  0.40532525  0.06161730  0.19418461    -0.10600
C241        C  0.43415091  0.06542022  0.18343891     0.22000
C242        C  0.44262659  0.08630383  0.16756587    -0.19900
C243        C  0.42251390  0.10239416  0.16225283    -0.10800
C244        C  0.45742579  0.05025357  0.18904640    -0.14900
C245        C  0.44706510  0.02318556  0.20094382    -0.28800
C246        C  0.37028471  0.11414305  0.16768636    -0.03000
C247        C  0.37657659  0.13562320  0.15316390    -0.39600
H248        H  0.36329495  0.07432648  0.19750967     0.13200
H249        H  0.39853667  0.04693267  0.20691348     0.12800
H250        H  0.46490944  0.09008600  0.15914437     0.12300
H251        H  0.43006279  0.11746491  0.14969438     0.12500
H252        H  0.48467625  0.06307674  0.18402052     0.15200
H253        H  0.42005695  0.00985019  0.20617878     0.14000
H254        H  0.34628948  0.10648522  0.17561769     0.11700
H255        H  0.40009342  0.14368259  0.14493198     0.13700
C256        C  0.19727745  0.10461021  0.17222776     0.19800
C257        C  0.16845164  0.11079152  0.16894063    -0.18300
C258        C  0.13509607  0.08957280  0.17708596    -0.10600
C259        C  0.12952250  0.06125973  0.18874082     0.22000
C260        C  0.15832786  0.05508639  0.19206427    -0.19900
C261        C  0.19168355  0.07625354  0.18388362    -0.10800
C262        C  0.09526512  0.03918823  0.19873980    -0.14900
C263        C  0.06406822  0.03888945  0.19548067    -0.28800
C264        C  0.23176211  0.12747505  0.16250948    -0.03000
C265        C  0.26193914  0.12507577  0.16405355    -0.39600
H266        H  0.17173032  0.13227756  0.15998916     0.13200
H267        H  0.11412763  0.09596737  0.17442497     0.12800
H268        H  0.15505452  0.03371782  0.20112148     0.12300
H269        H  0.21268191  0.07004009  0.18673425     0.12500
H270        H  0.09605658  0.02262295  0.20979225     0.15200
H271        H  0.06095320  0.05202019  0.18348282     0.14000
H272        H  0.23190166  0.14698401  0.15302885     0.11700
H273        H  0.26427343  0.10837487  0.17444585     0.13700
C274        C  0.38897900  0.29368272  0.17784657     0.19800
C275        C  0.38160013  0.32195534  0.17614448    -0.18300
C276        C  0.40431779  0.35536151  0.18376468    -0.10600
C277        C  0.43534606  0.36156478  0.19331684     0.22000
C278        C  0.44234773  0.33309816  0.19543337    -0.19900
C279        C  0.41964640  0.29962113  0.18773742    -0.10800
C280        C  0.45945636  0.39635988  0.20235173    -0.14900
C281        C  0.45989785  0.42725205  0.19843447    -0.28800
C282        C  0.36481822  0.25955481  0.16822035    -0.03000
C283        C  0.37026170  0.23138672  0.16664306    -0.39600
H284        H  0.35817113  0.31830003  0.16871020     0.13200
H285        H  0.39700582  0.37595553  0.18235125     0.12800
H286        H  0.46565385  0.33681792  0.20303342     0.12300
H287        H  0.42648377  0.27880479  0.18956832     0.12500
H288        H  0.47726038  0.39629155  0.21295289     0.15200
H289        H  0.44540679  0.42888596  0.18658999     0.14000
H290        H  0.34207439  0.25831799  0.16097762     0.11700
H291        H  0.39087887  0.22978457  0.17448317     0.13700
C292        C  0.34391309  0.39996952  0.95126639     0.19800
C293        C  0.30776729  0.38446496  0.95591620    -0.18300
C294        C  0.28137652  0.36982461  0.94242281    -0.10600
C295        C  0.29063920  0.37011574  0.92396263     0.22000
C296        C  0.32661396  0.38385530  0.91936635    -0.19900
C297        C  0.35312601  0.39887012  0.93287048    -0.10800
C298        C  0.26313521  0.35683898  0.90935116    -0.14900
C299        C  0.23570682  0.36347028  0.90982344    -0.28800
C300        C  0.37100645  0.41651888  0.96603010    -0.03000
C301        C  0.40443544  0.44283028  0.96301236    -0.39600
H302        H  0.29993122  0.38431274  0.97001321     0.13200
H303        H  0.25372314  0.35830847  0.94644484     0.12800
H304        H  0.33424094  0.38381710  0.90524832     0.12300
H305        H  0.38063184  0.40934066  0.92885997     0.12500
H306        H  0.26630586  0.34287720  0.89778539     0.15200
H307        H  0.23272614  0.37723739  0.92153630     0.14000
H308        H  0.36258572  0.40778429  0.98001193     0.11700
H309        H  0.41288031  0.45293929  0.94923983     0.13700
C310        C  0.07719207  0.16482190  0.95423965     0.19800
C311        C  0.07468430  0.16339730  0.93505366    -0.18300
C312        C  0.09253793  0.19418725  0.92452589    -0.10600
C313        C  0.11314261  0.22739808  0.93300425     0.22000
C314        C  0.11547725  0.22902006  0.95218062    -0.19900
C315        C  0.09756194  0.19813708  0.96275201    -0.10800
C316        C  0.13412954  0.26041387  0.92226433    -0.14900
C317        C  0.12585569  0.26453741  0.90498092    -0.28800
C318        C  0.05895628  0.13064114  0.96445666    -0.03000
C319        C  0.06158556  0.12686092  0.98263026    -0.39600
H320        H  0.05941194  0.13814334  0.92809467     0.13200
H321        H  0.09097277  0.19152380  0.90979385     0.12800
H322        H  0.13135911  0.25429609  0.95901178     0.12300
H323        H  0.10014550  0.20076434  0.97744493     0.12500
H324        H  0.15752915  0.28173852  0.92880751     0.15200
H325        H  0.10219751  0.24368595  0.89844639     0.14000
H326        H  0.04325869  0.10685216  0.95631639     0.11700
H327        H  0.07679438  0.14964208  0.99139308     0.13700
C328        C  0.09376545  0.42398328  0.95568283     0.19800
C329        C  0.07546042  0.39029469  0.94755420    -0.18300
C330        C  0.09260249  0.37946792  0.93497107    -0.10600
C331        C  0.12871105  0.40186956  0.93073992     0.22000
C332        C  0.14718310  0.43539774  0.93909447    -0.19900
C333        C  0.12970152  0.44666554  0.95126868    -0.10800
C334        C  0.14814691  0.38955209  0.91879354    -0.14900
C335        C  0.13333649  0.36956189  0.90384288    -0.28800
C336        C  0.07528876  0.43433864  0.96930716    -0.03000
C337        C  0.07628848  0.46592312  0.96864420    -0.39600
H338        H  0.04780024  0.37237270  0.95093104     0.13200
H339        H  0.07799920  0.35315356  0.92905494     0.12800
H340        H  0.17517754  0.45284156  0.93619660     0.12300
H341        H  0.14442745  0.47255275  0.95763280     0.12500
H342        H  0.17572554  0.39762471  0.92223017     0.15200
H343        H  0.10695269  0.36380513  0.89927386     0.14000
H344        H  0.05809893  0.41442600  0.97917670     0.11700
H345        H  0.09047912  0.48448052  0.95763074     0.13700
C346        C  0.11286263  0.40956832  0.85418063     0.19800
C347        C  0.10113274  0.43108616  0.86272522    -0.18300
C348        C  0.07947050  0.44168645  0.85337272    -0.10600
C349        C  0.06941546  0.43137124  0.83508240     0.22000
C350        C  0.08099975  0.40971407  0.82652253    -0.19900
C351        C  0.10266880  0.39903325  0.83590818    -0.10800
C352        C  0.04668637  0.44236417  0.82459931    -0.14900
C353        C  0.04543542  0.47236326  0.82816353    -0.28800
C354        C  0.13514846  0.39853651  0.86502959    -0.03000
C355        C  0.13737891  0.36902915  0.86162878    -0.39600
H356        H  0.10826524  0.43924053  0.87684184     0.13200
H357        H  0.07018806  0.45739185  0.86068463     0.12800
H358        H  0.07364197  0.40143441  0.81243956     0.12300
H359        H  0.11168914  0.38301953  0.82868970     0.12500
H360        H  0.03146939  0.42582090  0.81312057     0.15200
H361        H  0.05989603  0.48890290  0.83975308     0.14000
H362        H  0.14849696  0.41430642  0.87704483     0.11700
H363        H  0.12529985  0.35340217  0.84942360     0.13700
C364        C  0.06840763  0.13800018  0.83515108     0.19800
C365        C  0.06208334  0.16684277  0.83305124    -0.18300
C366        C  0.08185436  0.19824906  0.84302209    -0.10600
C367        C  0.10884371  0.20170095  0.85522431     0.22000
C368        C  0.11552568  0.17308235  0.85714347    -0.19900
C369        C  0.09587882  0.14175347  0.84711567    -0.10800
C370        C  0.12922110  0.23378647  0.86686904    -0.14900
C371        C  0.13243946  0.26581513  0.86305907    -0.28800
C372        C  0.04636212  0.10500093  0.82433355    -0.03000
C373        C  0.04458453  0.07351952  0.82797988    -0.39600
H374        H  0.04134688  0.16488347  0.82385690     0.13200
H375        H  0.07518621  0.21926919  0.84143736     0.12800
H376        H  0.13612964  0.17500511  0.86641025     0.12300
H377        H  0.10271067  0.12086190  0.84875129     0.12500
H378        H  0.14255311  0.23102015  0.87892548     0.15200
H379        H  0.12283100  0.27021119  0.85009524     0.14000
H380        H  0.03028306  0.10656616  0.81325914     0.11700
H381        H  0.05721973  0.07046499  0.84018763     0.13700
C382        C  0.37372136  0.42659532  0.84338379     0.19800
C383        C  0.34674102  0.39089691  0.84258161    -0.18300
C384        C  0.31434014  0.37948680  0.85159414    -0.10600
C385        C  0.30798681  0.40371837  0.86155192     0.22000
C386        C  0.33528199  0.43916892  0.86285666    -0.19900
C387        C  0.36768272  0.45065846  0.85377590    -0.10800
C388        C  0.27382200  0.39263855  0.87126089    -0.14900
C389        C  0.24302013  0.36351714  0.86671029    -0.28800
C390        C  0.40649409  0.43761867  0.83229046    -0.03000
C391        C  0.43501361  0.47041826  0.83239172    -0.39600
H392        H  0.35060430  0.37169211  0.83478104     0.13200
H393        H  0.29457850  0.35163552  0.85083641     0.12800
H394        H  0.33126496  0.45827053  0.87066788     0.12300
H395        H  0.38730447  0.47846861  0.85473237     0.12500
H396        H  0.27395331  0.40929972  0.88244106     0.15200
H397        H  0.24141902  0.34892967  0.85433392     0.14000
H398        H  0.40688022  0.41786730  0.82320994     0.11700
H399        H  0.43763887  0.48999288  0.84242887     0.13700
C400        C  0.39094103  0.45890203  0.76246347     0.19800
C401        C  0.38398212  0.47828137  0.74909629    -0.18300
C402        C  0.35500816  0.46109162  0.73703959    -0.10600
C403        C  0.33264675  0.42400322  0.73802641     0.22000
C404        C  0.33969618  0.40472990  0.75137292    -0.19900
C405        C  0.36837867  0.42188812  0.76347218    -0.10800
C406        C  0.30268748  0.40389651  0.72503565    -0.14900
C407        C  0.28536700  0.41798385  0.71577544    -0.28800
C408        C  0.42356721  0.47734598  0.77402417    -0.03000
C409        C  0.42707985  0.46493813  0.79042505    -0.39600
H410        H  0.40129044  0.50671514  0.74783285     0.13200
H411        H  0.35095173  0.47677867  0.72665819     0.12800
H412        H  0.32314019  0.37615022  0.75231895     0.12300
H413        H  0.37347781  0.40575114  0.77313718     0.12500
H414        H  0.29314518  0.37553996  0.72386896     0.15200
H415        H  0.29285753  0.44573964  0.71751983     0.14000
H416        H  0.44534079  0.50195353  0.76877864     0.11700
H417        H  0.40412181  0.44245389  0.79633500     0.13700
C418        C  0.10050863  0.18361773  0.74659600     0.19800
C419        C  0.06450251  0.16381020  0.75157980    -0.18300
C420        C  0.05303154  0.13537683  0.76377609    -0.10600
C421        C  0.07732795  0.12575285  0.77126014     0.22000
C422        C  0.11350459  0.14590212  0.76660817    -0.19900
C423        C  0.12506510  0.17451674  0.75435538    -0.10800
C424        C  0.06579709  0.09575369  0.78442855    -0.14900
C425        C  0.03208820  0.06873981  0.78501706    -0.28800
C426        C  0.11067725  0.21379999  0.73365722    -0.03000
C427        C  0.14276685  0.23256028  0.72562130    -0.39600
H428        H  0.04506699  0.17045213  0.74607265     0.13200
H429        H  0.02515258  0.12152799  0.76754895     0.12800
H430        H  0.13281958  0.13940594  0.77241439     0.12300
H431        H  0.15319049  0.18944137  0.75126573     0.12500
H432        H  0.08554577  0.09548373  0.79366352     0.15200
H433        H  0.01306723  0.06638140  0.77456235     0.14000
H434        H  0.09005983  0.22058634  0.73033788     0.11700
H435        H  0.16401063  0.22645955  0.72825986     0.13700
C436        C  0.09257978  0.43124217  0.73388849     0.19800
C437        C  0.08065275  0.45408966  0.72710759    -0.18300
C438        C  0.06194838  0.46529561  0.73843727    -0.10600
C439        C  0.05596825  0.45478159  0.75685983     0.22000
C440        C  0.06868653  0.43256515  0.76377929    -0.19900
C441        C  0.08676141  0.42082983  0.75237401    -0.10800
C442        C  0.03497162  0.46587850  0.76839637    -0.14900
C443        C  0.04238039  0.47361362  0.78623926    -0.28800
C444        C  0.11102902  0.41856247  0.72147821    -0.03000
C445        C  0.10574427  0.38520834  0.72244564    -0.39600
H446        H  0.08504532  0.46252927  0.71292356     0.13200
H447        H  0.05224506  0.48231762  0.73284699     0.12800
H448        H  0.06390384  0.42351841  0.77785557     0.12300
H449        H  0.09628601  0.40372962  0.75803878     0.12500
H450        H  0.01318892  0.46758023  0.76185417     0.15200
H451        H  0.06537465  0.47304070  0.79202760     0.14000
H452        H  0.12759912  0.43628599  0.71069188     0.11700
H453        H  0.08687697  0.36657189  0.73224844     0.13700
C454        C  0.21873799  0.28334134  0.42991661     0.19800
C455        C  0.24850316  0.30235879  0.41865158    -0.18300
C456        C  0.26156957  0.28455262  0.40786881    -0.10600
C457        C  0.24483266  0.24714105  0.40804850     0.22000
C458        C  0.21435302  0.22813371  0.41890487    -0.19900
C459        C  0.20142886  0.24596708  0.42975703    -0.10800
C460        C  0.25726831  0.22680665  0.39666316    -0.14900
C461        C  0.28997995  0.24078803  0.38915498    -0.28800
C462        C  0.20605102  0.30330427  0.44130841    -0.03000
C463        C  0.18900690  0.29097497  0.45730356    -0.39600
H464        H  0.26190557  0.33117569  0.41830604     0.13200
H465        H  0.28431550  0.30026999  0.39925757     0.12800
H466        H  0.20050127  0.19931844  0.41903014     0.12300
H467        H  0.17764028  0.23041417  0.43776636     0.12500
H468        H  0.23865768  0.19868893  0.39466484     0.15200
H469        H  0.30969723  0.26837197  0.39146929     0.14000
H470        H  0.21327512  0.33016096  0.43699420     0.11700
H471        H  0.18454629  0.26557140  0.46262316     0.13700
C472        C  0.49771777  0.26070445  0.40530247     0.19800
C473        C  0.50591469  0.28756730  0.41831305    -0.18300
C474        C  0.03672332  0.30162606  0.42902042    -0.10600
C475        C  0.05979586  0.28721895  0.42765109     0.22000
C476        C  0.05276594  0.26137425  0.41419240    -0.19900
C477        C  0.02280166  0.24923257  0.40278235    -0.10800
C478        C  0.09185631  0.29888488  0.43958375    -0.14900
C479        C  0.09546562  0.31347641  0.45629502    -0.28800
C480        C  0.46539146  0.24875458  0.39349111    -0.03000
C481        C  0.44724013  0.21567150  0.38650925    -0.39600
H482        H  0.48880607  0.29931022  0.41978987     0.13200
H483        H  0.04180732  0.32242167  0.43877849     0.12800
H484        H  0.07039890  0.25027712  0.41259184     0.12300
H485        H  0.01851929  0.22948729  0.39250080     0.12500
H486        H  0.11229962  0.29295521  0.43486516     0.15200
H487        H  0.07400058  0.31685840  0.46189021     0.14000
H488        H  0.45512947  0.26708397  0.39132400     0.11700
H489        H  0.45579793  0.19636859  0.38975054     0.13700
C490        C  0.22253498  0.44462166  0.43155554     0.19800
C491        C  0.20468775  0.45662825  0.41986652    -0.18300
C492        C  0.22040751  0.98333139  0.40896755    -0.10600
C493        C  0.25776442  0.00367839  0.41043636     0.22000
C494        C  0.27915804  0.49408561  0.42158341    -0.19900
C495        C  0.26004936  0.46345375  0.43222439    -0.10800
C496        C  0.27854509  0.03585557  0.39907081    -0.14900
C497        C  0.26497911  0.05645958  0.39338623    -0.28800
C498        C  0.20100443  0.41184103  0.44236644    -0.03000
C499        C  0.21174540  0.40518215  0.45848016    -0.39600
H500        H  0.17587990  0.44228245  0.41889930     0.13200
H501        H  0.20568273  0.99041321  0.39933902     0.12800
H502        H  0.30799888  0.50810336  0.42224052     0.12300
H503        H  0.27473519  0.45428782  0.44065982     0.12500
H504        H  0.30589386  0.04318645  0.39566918     0.15200
H505        H  0.23844955  0.05046792  0.39768044     0.14000
H506        H  0.17418444  0.39378494  0.43753668     0.11700
H507        H  0.23716488  0.42438354  0.46434308     0.13700
C508        C  0.28116632  0.21813482  0.60307856     0.19800
C509        C  0.24640719  0.20216874  0.60996320    -0.18300
C510        C  0.23605207  0.22117103  0.62151908    -0.10600
C511        C  0.26070710  0.25611452  0.62675084     0.22000
C512        C  0.29581310  0.27169667  0.62031511    -0.19900
C513        C  0.30588821  0.25302068  0.60830979    -0.10800
C514        C  0.25019007  0.27632714  0.63914094    -0.14900
C515        C  0.21910321  0.27606323  0.63688573    -0.28800
C516        C  0.29144632  0.19750064  0.59094752    -0.03000
C517        C  0.30943881  0.21115756  0.57539511    -0.39600
H518        H  0.22716368  0.17514684  0.60618654     0.13200
H519        H  0.20897795  0.20839399  0.62661156     0.12800
H520        H  0.31521129  0.29848151  0.62435303     0.12300
H521        H  0.33307473  0.26550457  0.60337518     0.12500
H522        H  0.26885835  0.29284228  0.64967710     0.15200
H523        H  0.20196663  0.26191446  0.62534549     0.14000
H524        H  0.28185084  0.16965046  0.59421165     0.11700
H525        H  0.31606714  0.23784427  0.57109224     0.13700
C526        C  0.44523176  0.22414757  0.59870708     0.19800
C527        C  0.44538749  0.23181552  0.61738797    -0.18300
C528        C  0.97351811  0.23860433  0.62841403    -0.10600
C529        C  0.00658241  0.25071286  0.61965136     0.22000
C530        C  0.50871078  0.24383247  0.60084258    -0.19900
C531        C  0.47739813  0.23061659  0.59048136    -0.10800
C532        C  0.04099325  0.26666281  0.62974633    -0.14900
C533        C  0.04410937  0.26458677  0.64799588    -0.28800
C534        C  0.41141828  0.21097729  0.58819517    -0.03000
C535        C  0.40522409  0.19421073  0.57197551    -0.39600
H536        H  0.42114313  0.22771170  0.62398336     0.13200
H537        H  0.97157630  0.24014103  0.64308208     0.12800
H538        H  0.53314646  0.24878906  0.59412861     0.12300
H539        H  0.47892725  0.22644300  0.57601286     0.12500
H540        H  0.06511871  0.28101349  0.62163972     0.15200
H541        H  0.02083436  0.24972614  0.65653089     0.14000
H542        H  0.39084443  0.21549257  0.59410565     0.11700
H543        H  0.42525901  0.18930285  0.56580065     0.13700
C544        C  0.21779384  0.49400386  0.61759223     0.19800
C545        C  0.24733248  0.02808930  0.62262405    -0.18300
C546        C  0.25973245  0.05449534  0.60920104    -0.10600
C547        C  0.24941121  0.04581760  0.59079917     0.22000
C548        C  0.22535305  0.01041313  0.58622096    -0.19900
C549        C  0.20907349  0.48552043  0.59896006    -0.10800
C550        C  0.26348384  0.07343837  0.57629770    -0.14900
C551        C  0.29723132  0.10027897  0.57689220    -0.28800
C552        C  0.20707976  0.46654038  0.63215969    -0.03000
C553        C  0.19915499  0.43274915  0.62893337    -0.39600
H554        H  0.25602909  0.03553376  0.63664888     0.13200
H555        H  0.27723404  0.08178138  0.61330579     0.12800
H556        H  0.21664135  0.00326037  0.57217797     0.12300
H557        H  0.19255949  0.45829391  0.59453659     0.12500
H558        H  0.24625127  0.07120265  0.56487156     0.15200
H559        H  0.31418958  0.10229147  0.58840599     0.14000
H560        H  0.20752974  0.47496747  0.64620655     0.11700
H561        H  0.19949654  0.42387041  0.61510703     0.13700
C562        C  0.23292231  0.27002330  0.50750350     0.19800
C563        C  0.26772308  0.27624000  0.50439159    -0.18300
C564        C  0.28148983  0.25770928  0.51422187    -0.10600
C565        C  0.26053415  0.23207498  0.52735195     0.22000
C566        C  0.22588661  0.22614145  0.53065535    -0.19900
C567        C  0.21206157  0.24464105  0.52078886    -0.10800
C568        C  0.27421647  0.21199399  0.53829463    -0.14900
C569        C  0.30205843  0.20776656  0.53326769    -0.28800
C570        C  0.21943312  0.28979099  0.49613071    -0.03000
C571        C  0.18931270  0.29114760  0.49947033    -0.39600
H572        H  0.28447804  0.29567934  0.49430701     0.13200
H573        H  0.30868479  0.26400989  0.51163754     0.12800
H574        H  0.20922711  0.20674128  0.54079017     0.12300
H575        H  0.18493966  0.23842434  0.52347408     0.12500
H576        H  0.25985805  0.19907639  0.55073037     0.15200
H577        H  0.31413481  0.21688499  0.51991570     0.14000
H578        H  0.23577209  0.30484481  0.48460215     0.11700
H579        H  0.17424696  0.27963785  0.51185483     0.13700
C580        C  0.26681098  0.03113525  0.52694951     0.19800
C581        C  0.27466539  0.50345454  0.53148818    -0.18300
C582        C  0.25583919  0.47161735  0.52164829    -0.10600
C583        C  0.23130345  0.46835746  0.50791196     0.22000
C584        C  0.22223430  0.99514294  0.50406216    -0.19900
C585        C  0.24179543  0.02737367  0.51337871    -0.10800
C586        C  0.21096204  0.43572954  0.49661097    -0.14900
C587        C  0.20736372  0.40352182  0.50045096    -0.28800
C588        C  0.28830523  0.06478095  0.53742886    -0.03000
C589        C  0.28967350  0.09605608  0.53357326    -0.39600
H590        H  0.29329316  0.50522604  0.54199734     0.13200
H591        H  0.26102340  0.44997876  0.52472770     0.12800
H592        H  0.20348956  0.99326539  0.49357108     0.12300
H593        H  0.23679951  0.04893201  0.50987952     0.12500
H594        H  0.19730109  0.43823325  0.48463795     0.15200
H595        H  0.21735199  0.39896956  0.51324091     0.14000
H596        H  0.30398127  0.06373311  0.54887831     0.11700
H597        H  0.27733559  0.09910394  0.52124249     0.13700
C598        C  0.46358501  0.23863420  0.52270957     0.19800
C599        C  0.49072667  0.27384201  0.52542686    -0.18300
C600        C  0.02286740  0.28727634  0.51678301    -0.10600
C601        C  0.02954676  0.26562504  0.50486622     0.22000
C602        C  0.00281172  0.23017042  0.50231158    -0.19900
C603        C  0.46979733  0.21683408  0.51067316    -0.10800
C604        C  0.06315244  0.27926504  0.49421391    -0.14900
C605        C  0.09367158  0.30914344  0.49831725    -0.28800
C606        C  0.43032100  0.22535581  0.53355993    -0.03000
C607        C  0.39994347  0.19475119  0.53029324    -0.39600
H608        H  0.48673311  0.29119258  0.53468650     0.13200
H609        H  0.04228441  0.31492121  0.51884165     0.12800
H610        H  0.00723026  0.21288018  0.49321259     0.12300
H611        H  0.45005305  0.18931859  0.50851295     0.12500
H612        H  0.06297326  0.26343607  0.48260754     0.15200
H613        H  0.09603202  0.32341725  0.51090595     0.14000
H614        H  0.43095678  0.24173842  0.54500733     0.11700
H615        H  0.39677151  0.17955611  0.51794683     0.13700
C616        C  0.33509201  0.66887995  0.57242908     0.46600
H617        H  0.33593632  0.66941217  0.58761054    -0.02500
C618        C  0.33198567  0.66646267  0.53689377     0.46600
H619        H  0.33079096  0.66553051  0.52167924    -0.02500
C620        C  0.37168624  0.68281885  0.56341746    -0.16200
C621        C  0.31197942  0.63133083  0.56488898    -0.15900
C622        C  0.31954998  0.69102208  0.56402991    -0.16300
C623        C  0.36997704  0.68167071  0.54458919    -0.16300
C624        C  0.31058290  0.62972943  0.54604134    -0.15800
C625        C  0.31773998  0.68975191  0.54524912    -0.16200
C626        C  0.16186188  0.83183184  0.49617343     0.46600
H627        H  0.16079525  0.83079837  0.51138788    -0.02500
C628        C  0.16427733  0.83415031  0.46057417     0.46600
H629        H  0.16553769  0.83523695  0.44541625    -0.02500
C630        C  0.17725283  0.80958186  0.48781166    -0.16200
C631        C  0.12517370  0.81801833  0.48700601    -0.15900
C632        C  0.18496756  0.86956473  0.48852460    -0.16300
C633        C  0.17834447  0.81062332  0.46899376    -0.16300
C634        C  0.12638224  0.81958811  0.46818600    -0.15800
C635        C  0.18641557  0.87065825  0.46971406    -0.16200
O636        O  0.17966508  0.87232912  0.64115423    -0.77400
C637        C  0.20659509  0.79279743  0.65200644     0.83700
O638        O  0.08019240  0.78848999  0.67744559    -0.78500
O639        O  0.17948431  0.77835038  0.70809533    -0.80000
O640        O  0.23919814  0.90885785  0.69895834    -0.79800
O641        O  0.19595958  0.91561002  0.66175658    -0.78400
Zn642      Zn  0.15987739  0.82691246  0.65567275     1.55700
O643        O  0.24692529  0.86172251  0.70307356    -0.79800
Cd644      Cd  0.18990541  0.88836475  0.68615255     1.59700
Cd645      Cd  0.12372846  0.80936227  0.69513838     1.59600
O646        O  0.15838793  0.89731800  0.70441937    -0.79800
O647        O  0.16935562  0.83633486  0.68149419    -1.90300
Cd648      Cd  0.20375485  0.82062711  0.68989294     1.59900
O649        O  0.11791067  0.84267926  0.71332209    -0.79800
O650        O  0.22067317  0.80258499  0.66784257    -0.78400
C651        C  0.07908612  0.78740246  0.66000908     0.84100
C652        C  0.19172080  0.90494261  0.64517379     0.83800
O653        O  0.18173023  0.79836697  0.64633667    -0.77400
C654        C  0.25694920  0.89465207  0.70530801     0.84600
O655        O  0.10739218  0.80047297  0.65045825    -0.77500
C656        C  0.13263854  0.87638804  0.71469060     0.84700
C657        C  0.14782967  0.76071349  0.71425959     0.85000
O658        O  0.12362069  0.76852758  0.71010886    -0.79900
C659        C  0.99891688  0.50058293  0.79135533     0.46600
H660        H  0.99691862  0.50101130  0.77626333    -0.02500
C661        C  0.00466659  0.50163501  0.82677225     0.46600
H662        H  0.00709666  0.50213658  0.84195621    -0.02500
C663        C  0.46442938  0.98204724  0.80143472    -0.16200
C664        C  0.02266734  0.98392482  0.79792606    -0.15900
C665        C  0.01704075  0.53812092  0.79943317    -0.16300
C666        C  0.46799683  0.98335647  0.82019218    -0.16300
C667        C  0.02635289  0.98527307  0.81673104    -0.15800
C668        C  0.02052481  0.53883708  0.81820356    -0.16200
C669        C  0.17277632  0.83109152  0.86670859     0.46600
H670        H  0.17406370  0.83018242  0.85153015    -0.02500
C671        C  0.16947834  0.83307146  0.90218529     0.46600
H672        H  0.16775148  0.83400021  0.91733303    -0.02500
C673        C  0.15450024  0.85191220  0.87350608    -0.16200
C674        C  0.15160327  0.79421098  0.87554326    -0.15900
C675        C  0.20964777  0.84847048  0.87613966    -0.16300
C676        C  0.15283523  0.85284982  0.89225904    -0.16300
C677        C  0.14997395  0.79511307  0.89433671    -0.15800
C678        C  0.20760114  0.84944786  0.89495059    -0.16200
C679        C  0.32872006  0.67182813  0.12339520     0.46600
H680        H  0.32597853  0.67461406  0.10843895    -0.02500
C681        C  0.33360355  0.66330620  0.15837902     0.46600
H682        H  0.33601558  0.65993181  0.17331841    -0.02500
C683        C  0.29253392  0.65195852  0.13288593    -0.16200
C684        C  0.34810786  0.65104691  0.12794083    -0.15900
C685        C  0.34948217  0.70716994  0.13367391    -0.16300
C686        C  0.29456130  0.64714125  0.15145047    -0.16300
C687        C  0.35129028  0.64670407  0.14636818    -0.15800
C688        C  0.35149444  0.70288678  0.15230242    -0.16200
C689        C  0.99366431  0.99888411  0.20066429     0.46600
H690        H  0.49055098  0.99814766  0.18522990    -0.02500
C691        C  0.99853366  0.99999631  0.23617175     0.46600
H692        H  0.00252294  0.49924184  0.25176835    -0.02500
C693        C  0.47321476  0.51404251  0.21090825    -0.16200
C694        C  0.47840870  0.96114672  0.20908174    -0.15900
C695        C  0.03319660  0.52013616  0.20796973    -0.16300
C696        C  0.47647225  0.51413963  0.22961895    -0.16300
C697        C  0.48220741  0.96237007  0.22788297    -0.15800
C698        C  0.03602198  0.52030475  0.22676673    -0.16200
O699        O  0.34732360  0.70508057  0.30783506    -0.77400
C700        C  0.36400997  0.61634460  0.31947389     0.83700
O701        O  0.24299605  0.62947225  0.33971389    -0.78500
O702        O  0.31840066  0.59852112  0.37497667    -0.80000
O703        O  0.40700877  0.72706282  0.36792607    -0.79800
O704        O  0.37606979  0.74770661  0.32856876    -0.78400
Zn705      Zn  0.32447080  0.65869285  0.32122376     1.55700
O706        O  0.39873098  0.67209232  0.37195011    -0.79800
Cd707      Cd  0.36186553  0.71865008  0.35299211     1.59700
Cd708      Cd  0.28331135  0.64944595  0.35905074     1.59600
O709        O  0.33448489  0.73723271  0.36906697    -0.79800
O710        O  0.33085735  0.66661712  0.34744950    -1.90300
Cd711      Cd  0.35300926  0.63878146  0.35758597     1.59900
O712        O  0.28117455  0.68950768  0.37339632    -0.79800
O713        O  0.36796530  0.61635058  0.33676734    -0.78400
C714        C  0.24349581  0.62379448  0.32265926     0.84100
C715        C  0.36694628  0.73763957  0.31201835     0.83800
O716        O  0.34770458  0.63107720  0.31199382    -0.77400
C717        C  0.41663810  0.70555558  0.37455783     0.84600
O718        O  0.27250998  0.63275826  0.31418384    -0.77500
C719        C  0.30330707  0.72232394  0.37599021     0.84700
C720        C  0.28777127  0.59070136  0.38123459     0.85000
O721        O  0.27202274  0.60813258  0.37684054    -0.79900
O722        O  0.02939708  0.56096847  0.98167194    -0.77400
C723        C  0.05172846  0.97423654  0.97752777     0.83700
O724        O  0.42196993  0.95237009  0.99370084    -0.78500
O725        O  0.49476804  0.92475216  0.03006012    -0.80000
O726        O  0.05829716  0.54887774  0.04537778    -0.79800
O727        O  0.04109776  0.58733762  0.00897396    -0.78400
Zn728      Zn  0.50936165  0.50921458  0.98694184     1.60200
O729        O  0.06691375  0.50331098  0.03819673    -0.79800
Cd730      Cd  0.01922903  0.54389782  0.02673805     1.59700
Cd731      Cd  0.45141344  0.96926302  0.01784653     1.59600
O732        O  0.48137683  0.54625924  0.04114813    -0.79800
O733        O  0.50287103  0.49870596  0.01290583    -1.90300
Cd734      Cd  0.02762321  0.97222410  0.01690434     1.59900
O735        O  0.43225743  0.49575785  0.03378048    -0.79800
O736        O  0.04696479  0.96082645  0.99352811    -0.78400
C737        C  0.43090551  0.96124500  0.97703428     0.84100
C738        C  0.04218697  0.58892556  0.99152078     0.83800
O739        O  0.04078862  0.99582366  0.97306330    -0.77400
C740        C  0.07452567  0.53097273  0.04755398     0.84600
O741        O  0.46259864  0.98378455  0.97250070    -0.77500
C742        C  0.44772705  0.52563166  0.04203136     0.84700
C743        C  0.46289859  0.91064905  0.03585874     0.85000
O744        O  0.44306195  0.92455477  0.03288698    -0.79900
C745        C  0.17355342  0.58275351  0.28411697     0.19800
C746        C  0.17364253  0.59036253  0.26542419    -0.18300
C747        C  0.14229104  0.57350680  0.25507446    -0.10600
C748        C  0.11013137  0.54845908  0.26328088     0.22000
C749        C  0.11022023  0.54024854  0.28188141    -0.19900
C750        C  0.14154654  0.55723570  0.29224256    -0.10800
C751        C  0.07643553  0.52905959  0.25275150    -0.14900
C752        C  0.06968792  0.54134145  0.23713649    -0.28800
C753        C  0.20757730  0.60078942  0.29447870    -0.03000
C754        C  0.20928384  0.60604671  0.31267870    -0.39600
H755        H  0.19813897  0.60945780  0.25878222     0.13200
H756        H  0.14367178  0.57956897  0.24062957     0.12800
H757        H  0.08593585  0.52053912  0.28841828     0.12300
H758        H  0.14069415  0.54969427  0.30645354     0.12500
H759        H  0.05643101  0.50352542  0.25813242     0.15200
H760        H  0.08913752  0.56688560  0.23160283     0.14000
H761        H  0.23218528  0.61115198  0.28669977     0.11700
H762        H  0.18508293  0.59765839  0.32054127     0.13700
C763        C  0.42863103  0.87793612  0.25683075     0.19800
C764        C  0.40048235  0.84348339  0.25371464    -0.18300
C765        C  0.39008429  0.81740982  0.26734336    -0.10600
C766        C  0.40768396  0.82542718  0.28445830     0.22000
C767        C  0.43532889  0.86012609  0.28765328    -0.19900
C768        C  0.44571727  0.88611794  0.27404349    -0.10800
C769        C  0.39709122  0.79900586  0.29958704    -0.14900
C770        C  0.37864942  0.76368944  0.29690777    -0.28800
C771        C  0.43874959  0.90521810  0.24223181    -0.03000
C772        C  0.47214478  0.93230964  0.24064055    -0.39600
H773        H  0.38654104  0.83672874  0.24069069     0.13200
H774        H  0.36778049  0.79140842  0.26447863     0.12800
H775        H  0.44888425  0.86721977  0.30078043     0.12300
H776        H  0.46657894  0.91276506  0.27724961     0.12500
H777        H  0.40526020  0.80904861  0.31342855     0.15200
H778        H  0.37142734  0.75301495  0.28315219     0.14000
H779        H  0.41845270  0.90289582  0.23253832     0.11700
H780        H  0.49261407  0.93496440  0.25025640     0.13700
C781        C  0.39812371  0.58787149  0.27741039     0.19800
C782        C  0.40544097  0.60026099  0.25928526    -0.18300
C783        C  0.42358243  0.58909325  0.24753751    -0.10600
C784        C  0.43439823  0.56485456  0.25354866     0.22000
C785        C  0.42686446  0.55221824  0.27168693    -0.19900
C786        C  0.40871418  0.56336383  0.28342191    -0.10800
C787        C  0.45384756  0.55397885  0.24058075    -0.14900
C788        C  0.45738145  0.52484506  0.24284285    -0.28800
C789        C  0.37970699  0.60140604  0.28951914    -0.03000
C790        C  0.37969509  0.59952640  0.30794536    -0.39600
H791        H  0.39750885  0.61905976  0.25424545     0.13200
H792        H  0.42915384  0.59943227  0.23369909     0.12800
H793        H  0.43531771  0.53416505  0.27712428     0.12300
H794        H  0.40300051  0.55244456  0.29710455     0.12500
H795        H  0.96591960  0.57035491  0.22891131     0.15200
H796        H  0.44715406  0.50838312  0.25492977     0.14000
H797        H  0.36726571  0.61531082  0.28297283     0.11700
H798        H  0.39322880  0.58730035  0.31497492     0.13700
C799        C  0.41106058  0.83484769  0.07031255     0.19800
C800        C  0.39377582  0.83341551  0.08679101    -0.18300
C801        C  0.38356256  0.80479517  0.09886310    -0.10600
C802        C  0.39031938  0.77678799  0.09462450     0.22000
C803        C  0.40729534  0.77810495  0.07803259    -0.19900
C804        C  0.41755570  0.80673379  0.06599505    -0.10800
C805        C  0.37750679  0.74437884  0.10621250    -0.14900
C806        C  0.36675107  0.74191969  0.12372135    -0.28800
C807        C  0.42159521  0.86580094  0.05790228    -0.03000
C808        C  0.44965666  0.87754150  0.04657533    -0.39600
H809        H  0.38817033  0.85455355  0.09034510     0.13200
H810        H  0.36955983  0.80443530  0.11118924     0.12800
H811        H  0.41222854  0.75662168  0.07423574     0.12300
H812        H  0.42981132  0.80629455  0.05317125     0.12500
H813        H  0.37691807  0.72137441  0.09985918     0.15200
H814        H  0.37061814  0.76559492  0.13066780     0.14000
H815        H  0.40765622  0.88099774  0.05916447     0.11700
H816        H  0.46559677  0.86430638  0.04628472     0.13700
C817        C  0.19922569  0.59864321  0.11097131     0.19800
C818        C  0.17769891  0.56278000  0.10632468    -0.18300
C819        C  0.14880938  0.55248917  0.09439634    -0.10600
C820        C  0.14086006  0.57798998  0.08691625     0.22000
C821        C  0.16103319  0.61352492  0.09246033    -0.19900
C822        C  0.19000661  0.62383528  0.10435190    -0.10800
C823        C  0.11196192  0.56832093  0.07322495    -0.14900
C824        C  0.10293737  0.54148234  0.06136807    -0.28800
C825        C  0.23101323  0.60890894  0.12272048    -0.03000
C826        C  0.25984297  0.64135306  0.12188932    -0.39600
H827        H  0.18372881  0.54280034  0.11160579     0.13200
H828        H  0.13280598  0.52455431  0.09107022     0.12800
H829        H  0.15490782  0.63346319  0.08722904     0.12300
H830        H  0.20508955  0.65153763  0.10831119     0.12500
H831        H  0.09915204  0.58463958  0.07227987     0.15200
H832        H  0.11693387  0.52626163  0.06167506     0.14000
H833        H  0.23153133  0.58885293  0.13157099     0.11700
H834        H  0.26125967  0.66017118  0.11157401     0.13700
C835        C  0.41871350  0.57670271  0.07507926     0.19800
C836        C  0.43285085  0.61267114  0.07981637    -0.18300
C837        C  0.41463506  0.62341601  0.09178419    -0.10600
C838        C  0.38196299  0.59824715  0.09944746     0.22000
C839        C  0.36807420  0.56223190  0.09498346    -0.19900
C840        C  0.38608401  0.55150427  0.08285522    -0.10800
C841        C  0.36322962  0.60844972  0.11315066    -0.14900
C842        C  0.36486508  0.64042535  0.11327529    -0.28800
C843        C  0.43977703  0.56641295  0.06287693    -0.03000
C844        C  0.42564018  0.53592203  0.05321010    -0.39600
H845        H  0.45823139  0.63253564  0.07431570     0.13200
H846        H  0.42670787  0.65126574  0.09543512     0.12800
H847        H  0.34328500  0.54229297  0.10099835     0.12300
H848        H  0.37482721  0.52340454  0.08009334     0.12500
H849        H  0.34719699  0.58883261  0.12339348     0.15200
H850        H  0.37753079  0.65892005  0.10207023     0.14000
H851        H  0.46814366  0.58500358  0.06169522     0.11700
H852        H  0.39716593  0.51764616  0.05353934     0.13700
C853        C  0.39123997  0.59505573  0.17252427     0.19800
C854        C  0.38679604  0.57901066  0.18979526    -0.18300
C855        C  0.40714552  0.56305253  0.19505689    -0.10600
C856        C  0.43251271  0.56243687  0.18310330     0.22000
C857        C  0.43695761  0.57840126  0.16581684    -0.19900
C858        C  0.41636326  0.59408197  0.16047557    -0.10800
C859        C  0.45614766  0.54746789  0.18871546    -0.14900
C860        C  0.44712473  0.52256275  0.20186245    -0.28800
C861        C  0.36834398  0.61120695  0.16738898    -0.03000
C862        C  0.37595302  0.63419405  0.15339724    -0.39600
H863        H  0.36772024  0.57913532  0.19936863     0.13200
H864        H  0.40339550  0.55200509  0.20871015     0.12800
H865        H  0.45624021  0.57846434  0.15632865     0.12300
H866        H  0.42003962  0.60484506  0.14676062     0.12500
H867        H  0.48231244  0.55845991  0.18249282     0.15200
H868        H  0.42097165  0.51117901  0.20806490     0.14000
H869        H  0.34410178  0.60334904  0.17511674     0.11700
H870        H  0.40028181  0.64274887  0.14572044     0.13700
C871        C  0.19885374  0.60887368  0.17251921     0.19800
C872        C  0.16864916  0.61177861  0.16751508    -0.18300
C873        C  0.13519978  0.59013343  0.17559355    -0.10600
C874        C  0.13097971  0.56476135  0.18895904     0.22000
C875        C  0.16129232  0.56226949  0.19414970    -0.19900
C876        C  0.19465916  0.58384405  0.18608225    -0.10800
C877        C  0.09647579  0.54156403  0.19865000    -0.14900
C878        C  0.06452786  0.53980567  0.19539192    -0.28800
C879        C  0.23343177  0.63154803  0.16273436    -0.03000
C880        C  0.26315240  0.62819796  0.16397709    -0.39600
H881        H  0.17084329  0.63076900  0.15713036     0.13200
H882        H  0.11297444  0.59360744  0.17135584     0.12800
H883        H  0.15920909  0.54345976  0.20460752     0.12300
H884        H  0.21687373  0.58062915  0.19062425     0.12500
H885        H  0.09780237  0.52527223  0.20967808     0.15200
H886        H  0.06083343  0.55290954  0.18356123     0.14000
H887        H  0.23371776  0.65098516  0.15311901     0.11700
H888        H  0.26505248  0.61087463  0.17416722     0.13700
C889        C  0.39001271  0.79515122  0.17613178     0.19800
C890        C  0.38109813  0.82249065  0.17534946    -0.18300
C891        C  0.40310203  0.85574016  0.18335792    -0.10600
C892        C  0.43490119  0.86266129  0.19233693     0.22000
C893        C  0.44348746  0.83515231  0.19346804    -0.19900
C894        C  0.42156253  0.80191722  0.18537742    -0.10800
C895        C  0.45850191  0.89724063  0.20166081    -0.14900
C896        C  0.45859044  0.92800623  0.19794127    -0.28800
C897        C  0.36667394  0.76119309  0.16617090    -0.03000
C898        C  0.37193910  0.73280816  0.16528443    -0.39600
H899        H  0.35700903  0.81820532  0.16837994     0.13200
H900        H  0.39473733  0.87565189  0.18269866     0.12800
H901        H  0.46751552  0.83949989  0.20052588     0.12300
H902        H  0.42985355  0.78200049  0.18630062     0.12500
H903        H  0.47660477  0.89723367  0.21208670     0.15200
H904        H  0.44372782  0.92952482  0.18624299     0.14000
H905        H  0.34454242  0.76004940  0.15835995     0.11700
H906        H  0.39146370  0.73093903  0.17394874     0.13700
C907        C  0.34488610  0.90134488  0.95019734     0.19800
C908        C  0.30867786  0.88606639  0.95457091    -0.18300
C909        C  0.28274740  0.87168024  0.94087893    -0.10600
C910        C  0.29254644  0.87206073  0.92250334     0.22000
C911        C  0.32861000  0.88554629  0.91819218    -0.19900
C912        C  0.35467496  0.90026199  0.93191293    -0.10800
C913        C  0.26537147  0.85863425  0.90775821    -0.14900
C914        C  0.23737374  0.86435639  0.90826623    -0.28800
C915        C  0.37149814  0.91785122  0.96510407    -0.03000
C916        C  0.40451019  0.94488231  0.96219749    -0.39600
H917        H  0.30046450  0.88591903  0.96857909     0.13200
H918        H  0.25497524  0.86019706  0.94471221     0.12800
H919        H  0.33662493  0.88546099  0.90416378     0.12300
H920        H  0.38232778  0.91056212  0.92816802     0.12500
H921        H  0.26878045  0.84456301  0.89632561     0.15200
H922        H  0.23424480  0.87830979  0.91984493     0.14000
H923        H  0.36308363  0.90856447  0.97900481     0.11700
H924        H  0.41282231  0.95534995  0.94847826     0.13700
C925        C  0.08341968  0.66190004  0.95416512     0.19800
C926        C  0.08042985  0.66108341  0.93500128    -0.18300
C927        C  0.09784892  0.69226800  0.92468489    -0.10600
C928        C  0.11879891  0.72530378  0.93330980     0.22000
C929        C  0.12257720  0.72611360  0.95244454    -0.19900
C930        C  0.10501270  0.69482110  0.96281524    -0.10800
C931        C  0.13843932  0.75888999  0.92263962    -0.14900
C932        C  0.12825431  0.76319269  0.90579010    -0.28800
C933        C  0.06478177  0.62753647  0.96426383    -0.03000
C934        C  0.05956074  0.62422595  0.98251967    -0.39600
H935        H  0.06461253  0.63606950  0.92791214     0.13200
H936        H  0.09541434  0.69011439  0.90994235     0.12800
H937        H  0.13918507  0.75109742  0.95940368     0.12300
H938        H  0.10904766  0.69664269  0.97747040     0.12500
H939        H  0.16238076  0.78040312  0.92872820     0.15200
H940        H  0.10389893  0.74225562  0.89980400     0.14000
H941        H  0.05459311  0.60345782  0.95605902     0.11700
H942        H  0.06864689  0.64751800  0.99116805     0.13700
C943        C  0.08855272  0.92289661  0.95076929     0.19800
C944        C  0.07334718  0.88713468  0.94551122    -0.18300
C945        C  0.09159581  0.87611928  0.93376649    -0.10600
C946        C  0.12580880  0.90059890  0.92750727     0.22000
C947        C  0.14113434  0.93633977  0.93279416    -0.19900
C948        C  0.12245049  0.94757069  0.94413934    -0.10800
C949        C  0.14665921  0.88864328  0.91650168    -0.14900
C950        C  0.13216344  0.86619398  0.90240745    -0.28800
C951        C  0.06974236  0.93322568  0.96425520    -0.03000
C952        C  0.07039888  0.96467792  0.96370724    -0.39600
H953        H  0.04741681  0.86766736  0.95062205     0.13200
H954        H  0.07956318  0.84826193  0.93011647     0.12800
H955        H  0.16762980  0.95548302  0.92821299     0.12300
H956        H  0.13507870  0.97519179  0.94829086     0.12500
H957        H  0.17476079  0.89920772  0.91973167     0.15200
H958        H  0.10504959  0.85800192  0.89800952     0.14000
H959        H  0.05371694  0.91373502  0.97457199     0.11700
H960        H  0.08351953  0.98304750  0.95247688     0.13700
C961        C  0.11553282  0.90855308  0.85230600     0.19800
C962        C  0.12148993  0.94331864  0.85490358    -0.18300
C963        C  0.10084486  0.95540979  0.84565162    -0.10600
C964        C  0.07324841  0.93269231  0.83371305     0.22000
C965        C  0.06789364  0.89823877  0.83077721    -0.19900
C966        C  0.08855044  0.88616052  0.84001438    -0.10800
C967        C  0.05014705  0.94395877  0.82364618    -0.14900
C968        C  0.04776421  0.97319667  0.82771706    -0.28800
C969        C  0.13614097  0.89604200  0.86367080    -0.03000
C970        C  0.13744106  0.86588781  0.86054287    -0.39600
H971        H  0.14209286  0.96118773  0.86426102     0.13200
H972        H  0.10687069  0.98256316  0.84789109     0.12800
H973        H  0.04715735  0.88029864  0.82151687     0.12300
H974        H  0.08242820  0.85896395  0.83781492     0.12500
H975        H  0.03412484  0.92720033  0.81243503     0.15200
H976        H  0.06049416  0.98838420  0.83992912     0.14000
H977        H  0.15068734  0.91238748  0.87533149     0.11700
H978        H  0.12651346  0.85100439  0.84801146     0.13700
C979        C  0.06289584  0.63424164  0.83776443     0.19800
C980        C  0.07568378  0.66739027  0.82920954    -0.18300
C981        C  0.09763346  0.69878226  0.83869094    -0.10600
C982        C  0.10674063  0.69764319  0.85714502     0.22000
C983        C  0.09410674  0.66441307  0.86567180    -0.19900
C984        C  0.07223456  0.63299670  0.85615010    -0.10800
C985        C  0.12897402  0.73034805  0.86798125    -0.14900
C986        C  0.13195222  0.76216802  0.86391701    -0.28800
C987        C  0.04016635  0.60167071  0.82702190    -0.03000
C988        C  0.04004244  0.57082352  0.82988454    -0.39600
H989        H  0.06913783  0.66897700  0.81498041     0.13200
H990        H  0.10767915  0.72363124  0.83138374     0.12800
H991        H  0.10070712  0.66275933  0.87985450     0.12300
H992        H  0.06223690  0.60794763  0.86332920     0.12500
H993        H  0.14199542  0.72772858  0.88021877     0.15200
H994        H  0.11982500  0.76565588  0.85160728     0.14000
H995        H  0.02471247  0.60385827  0.81577675     0.11700
H996        H  0.05491462  0.56829391  0.84130388     0.13700
C997        C  0.37516565  0.92720064  0.84275762     0.19800
C998        C  0.34889237  0.89113407  0.84213884    -0.18300
C999        C  0.31552596  0.87930664  0.85026658    -0.10600
C1000       C  0.30745503  0.90341218  0.85916106     0.22000
C1001       C  0.33374766  0.93940426  0.85991065    -0.19900
C1002       C  0.36707833  0.95127482  0.85171649    -0.10800
C1003       C  0.27294221  0.89181795  0.86875073    -0.14900
C1004       C  0.24288568  0.86104838  0.86525616    -0.28800
C1005       C  0.40931971  0.93861326  0.83276429    -0.03000
C1006       C  0.43771045  0.97164604  0.83319338    -0.39600
H1007       H  0.35416978  0.87195519  0.83528288     0.13200
H1008       H  0.29646969  0.85116072  0.84981124     0.12800
H1009       H  0.32837212  0.95851193  0.86675461     0.12300
H1010       H  0.38599701  0.97941818  0.85224915     0.12500
H1011       H  0.27227969  0.90934949  0.87919752     0.15200
H1012       H  0.24167034  0.84491179  0.85363520     0.14000
H1013       H  0.41072753  0.91901580  0.82398903     0.11700
H1014       H  0.43929615  0.99108738  0.84305958     0.13700
C1015       C  0.39391985  0.95909028  0.76335816     0.19800
C1016       C  0.38676339  0.97808236  0.74988625    -0.18300
C1017       C  0.35797693  0.96047857  0.73780581    -0.10600
C1018       C  0.33589445  0.92333595  0.73893220     0.22000
C1019       C  0.34322731  0.90444231  0.75237584    -0.19900
C1020       C  0.37183058  0.92200979  0.76445728    -0.10800
C1021       C  0.30558551  0.90286149  0.72620318    -0.14900
C1022       C  0.28944360  0.91712548  0.71611450    -0.28800
C1023       C  0.42632826  0.97803037  0.77493633    -0.03000
C1024       C  0.42983679  0.96592330  0.79138852    -0.39600
H1025       H  0.40377167  0.00657357  0.74856770     0.13200
H1026       H  0.35384732  0.97599614  0.72738084     0.12800
H1027       H  0.32690618  0.87580738  0.75344102     0.12300
H1028       H  0.37719330  0.90620242  0.77418848     0.12500
H1029       H  0.29472577  0.87416255  0.72593879     0.15200
H1030       H  0.29832639  0.94538982  0.71679100     0.14000
H1031       H  0.44801302  0.00267040  0.76963535     0.11700
H1032       H  0.40693430  0.94341998  0.79731884     0.13700
C1033       C  0.09638806  0.68143432  0.74736873     0.19800
C1034       C  0.06135693  0.66460932  0.75409198    -0.18300
C1035       C  0.05012752  0.63707904  0.76686968    -0.10600
C1036       C  0.07368750  0.62547829  0.77316507     0.22000
C1037       C  0.10884887  0.64252950  0.76673961    -0.19900
C1038       C  0.12011917  0.67006037  0.75387462    -0.10800
C1039       C  0.06227978  0.59586148  0.78648833    -0.14900
C1040       C  0.02857530  0.56901264  0.78707815    -0.28800
C1041       C  0.10659743  0.71090000  0.73392136    -0.03000
C1042       C  0.13941040  0.73063571  0.72679190    -0.39600
H1043       H  0.04256822  0.67293399  0.74952490     0.13200
H1044       H  0.02311045  0.62528035  0.77196755     0.12800
H1045       H  0.12749735  0.63416622  0.77148665     0.12300
H1046       H  0.14734410  0.68203201  0.74920368     0.12500
H1047       H  0.08225770  0.59506853  0.79535520     0.15200
H1048       H  0.00935439  0.56737568  0.77689686     0.14000
H1049       H  0.08586390  0.71710252  0.72991904     0.11700
H1050       H  0.16099031  0.72555190  0.73032103     0.13700
C1051       C  0.11724392  0.94021392  0.74505585     0.19800
C1052       C  0.11115363  0.96865090  0.74101522    -0.18300
C1053       C  0.09716962  0.98158456  0.75432680    -0.10600
C1054       C  0.09012045  0.96689357  0.77197947     0.22000
C1055       C  0.09750357  0.93947289  0.77630525    -0.19900
C1056       C  0.11071836  0.92597939  0.76289225    -0.10800
C1057       C  0.07435949  0.97958201  0.78587552    -0.14900
C1058       C  0.04007424  0.97147166  0.78459184    -0.28800
C1059       C  0.13058998  0.92599720  0.73049478    -0.03000
C1060       C  0.11952309  0.89106149  0.72900346    -0.39600
H1061       H  0.11636283  0.98020844  0.72743481     0.13200
H1062       H  0.09178550  0.00299135  0.75087756     0.12800
H1063       H  0.09236976  0.92809390  0.78992884     0.12300
H1064       H  0.11606649  0.90463145  0.76651083     0.12500
H1065       H  0.09072614  0.99461451  0.79741879     0.15200
H1066       H  0.02487746  0.95765335  0.77247817     0.14000
H1067       H  0.14837175  0.94438325  0.72026650     0.11700
H1068       H  0.09988186  0.87241896  0.73851110     0.13700
C1069       C  0.22235638  0.78402000  0.43073676     0.19800
C1070       C  0.25237176  0.80373040  0.41972045    -0.18300
C1071       C  0.26555947  0.78664636  0.40845494    -0.10600
C1072       C  0.24871836  0.74923260  0.40790465     0.22000
C1073       C  0.21839563  0.72957647  0.41877730    -0.19900
C1074       C  0.20532997  0.74666844  0.43008787    -0.10800
C1075       C  0.26085673  0.72945721  0.39585455    -0.14900
C1076       C  0.29280197  0.74387991  0.38747176    -0.28800
C1077       C  0.20878967  0.80326294  0.44214404    -0.03000
C1078       C  0.19013520  0.78983789  0.45762152    -0.39600
H1079       H  0.26571731  0.83257301  0.41982460     0.13200
H1080       H  0.28838986  0.80294364  0.40002966     0.12800
H1081       H  0.20456856  0.70072752  0.41846560     0.12300
H1082       H  0.18150316  0.73055491  0.43794062     0.12500
H1083       H  0.24263900  0.70112204  0.39416302     0.15200
H1084       H  0.31222749  0.77174140  0.38931695     0.14000
H1085       H  0.21626530  0.83038407  0.43821354     0.11700
H1086       H  0.18519669  0.76412876  0.46270123     0.13700
C1087       C  0.49939065  0.76392877  0.40446492     0.19800
C1088       C  0.50747620  0.79066835  0.41753923    -0.18300
C1089       C  0.03711894  0.80166002  0.42903977    -0.10600
C1090       C  0.05969864  0.78670127  0.42748704     0.22000
C1091       C  0.05236507  0.76109019  0.41388385    -0.19900
C1092       C  0.02258316  0.74972192  0.40246323    -0.10800
C1093       C  0.09157270  0.79749125  0.43938381    -0.14900
C1094       C  0.09492551  0.81105280  0.45630318    -0.28800
C1095       C  0.46719377  0.75192169  0.39263480    -0.03000
C1096       C  0.44950021  0.71882638  0.38566309    -0.39600
H1097       H  0.49051805  0.80256949  0.41895071     0.13200
H1098       H  0.04252058  0.82231918  0.43895336     0.12800
H1099       H  0.06960297  0.74958609  0.41217721     0.12300
H1100       H  0.01808855  0.73014640  0.39203603     0.12500
H1101       H  0.11192493  0.79162214  0.43448400     0.15200
H1102       H  0.07350515  0.81435731  0.46200257     0.14000
H1103       H  0.45671257  0.77003286  0.39044451     0.11700
H1104       H  0.45823392  0.69971648  0.38896435     0.13700
C1105       C  0.21949153  0.94205549  0.43196189     0.19800
C1106       C  0.20155818  0.95283082  0.41960951    -0.18300
C1107       C  0.22371255  0.48728550  0.40936107    -0.10600
C1108       C  0.26118576  0.50662725  0.41027169     0.22000
C1109       C  0.27580926  0.99245179  0.42247071    -0.19900
C1110       C  0.25691241  0.96200379  0.43321230    -0.10800
C1111       C  0.28206014  0.53898591  0.39898087    -0.14900
C1112       C  0.26879912  0.56009876  0.39362194    -0.28800
C1113       C  0.19833798  0.90929203  0.44280806    -0.03000
C1114       C  0.20920229  0.90311492  0.45899340    -0.39600
H1115       H  0.17280706  0.93758815  0.41819709     0.13200
H1116       H  0.20891012  0.49524208  0.40025324     0.12800
H1117       H  0.30463484  0.00737606  0.42360109     0.12300
H1118       H  0.27175699  0.95385675  0.44214316     0.12500
H1119       H  0.30903203  0.54575258  0.39517558     0.15200
H1120       H  0.24265596  0.55462750  0.39823079     0.14000
H1121       H  0.17179675  0.89055841  0.43781561     0.11700
H1122       H  0.23420764  0.92288873  0.46502963     0.13700
C1123       C  0.28206692  0.72087298  0.60335831     0.19800
C1124       C  0.24926449  0.70340757  0.61239215    -0.18300
C1125       C  0.23916422  0.72206130  0.62430156    -0.10600
C1126       C  0.26213005  0.75837985  0.62766580     0.22000
C1127       C  0.29543123  0.77569532  0.61903809    -0.19900
C1128       C  0.30520874  0.75717282  0.60675550    -0.10800
C1129       C  0.25154143  0.77827838  0.64023949    -0.14900
C1130       C  0.21838095  0.77369400  0.63978183    -0.28800
C1131       C  0.29220592  0.70008115  0.59123800    -0.03000
C1132       C  0.30996181  0.71311573  0.57556653    -0.39600
H1133       H  0.23132302  0.67532874  0.61010584     0.13200
H1134       H  0.21361181  0.70797411  0.63110842     0.12800
H1135       H  0.31357642  0.80360369  0.62161115     0.12300
H1136       H  0.33107521  0.77096290  0.60024426     0.12500
H1137       H  0.27153852  0.79816385  0.64921163     0.15200
H1138       H  0.19953649  0.75636068  0.62952735     0.14000
H1139       H  0.28297730  0.67240503  0.59481400     0.11700
H1140       H  0.31627408  0.73949911  0.57084769     0.13700
C1141       C  0.44305829  0.72128814  0.60209707     0.19800
C1142       C  0.44597434  0.73949676  0.61852346    -0.18300
C1143       C  0.97556380  0.74934713  0.62928788    -0.10600
C1144       C  0.00721535  0.75262177  0.62196580     0.22000
C1145       C  0.50318082  0.73091521  0.60713902    -0.19900
C1146       C  0.47195730  0.71671004  0.59668242    -0.10800
C1147       C  0.04143882  0.76888646  0.63225990    -0.14900
C1148       C  0.04405262  0.77084337  0.65066629    -0.28800
C1149       C  0.40969304  0.70816017  0.59109229    -0.03000
C1150       C  0.40505133  0.69423872  0.57414275    -0.39600
H1151       H  0.42427364  0.74348622  0.62305908     0.13200
H1152       H  0.97491177  0.75867088  0.64294647     0.12800
H1153       H  0.52516081  0.72746547  0.60251383     0.12300
H1154       H  0.47105768  0.70233953  0.58440574     0.12500
H1155       H  0.06563795  0.77879968  0.62422269     0.15200
H1156       H  0.02034886  0.75990494  0.65909255     0.14000
H1157       H  0.38862011  0.71184279  0.59698461     0.11700
H1158       H  0.42627774  0.69199914  0.56750375     0.13700
C1159       C  0.22443453  0.99241864  0.61802170     0.19800
C1160       C  0.23766918  0.52987585  0.62267433    -0.18300
C1161       C  0.25058066  0.55659867  0.60940410    -0.10600
C1162       C  0.24366321  0.54795847  0.59073836     0.22000
C1163       C  0.22183088  0.51237629  0.58566553    -0.19900
C1164       C  0.21303222  0.98383815  0.59968528    -0.10800
C1165       C  0.26004940  0.57566187  0.57643697    -0.14900
C1166       C  0.29404549  0.60164614  0.57802914    -0.28800
C1167       C  0.21299859  0.96543394  0.63287506    -0.03000
C1168       C  0.20094417  0.93060458  0.62996933    -0.39600
H1169       H  0.24407695  0.53720674  0.63692396     0.13200
H1170       H  0.26631810  0.58402930  0.61374503     0.12800
H1171       H  0.21568262  0.50528436  0.57137442     0.12300
H1172       H  0.19441793  0.95682049  0.59565757     0.12500
H1173       H  0.24461682  0.57386110  0.56427780     0.15200
H1174       H  0.30905243  0.60311327  0.59031297     0.14000
H1175       H  0.21637588  0.97500942  0.64688639     0.11700
H1176       H  0.19853270  0.92045493  0.61616483     0.13700
C1177       C  0.23398402  0.76954404  0.50744484     0.19800
C1178       C  0.26972522  0.77796942  0.50537272    -0.18300
C1179       C  0.28351381  0.75932019  0.51507006    -0.10600
C1180       C  0.26162598  0.73146667  0.52697427     0.22000
C1181       C  0.22596297  0.72317737  0.52914656    -0.19900
C1182       C  0.21213474  0.74175146  0.51940958    -0.10800
C1183       C  0.27528799  0.71154194  0.53795922    -0.14900
C1184       C  0.30441140  0.70911924  0.53357120    -0.28800
C1185       C  0.22039909  0.78938001  0.49629666    -0.03000
C1186       C  0.18975722  0.78967730  0.49961342    -0.39600
H1187       H  0.28715680  0.79923596  0.49625844     0.13200
H1188       H  0.31139621  0.76724723  0.51341541     0.12800
H1189       H  0.20858227  0.70194397  0.53828908     0.12300
H1190       H  0.18425714  0.73372796  0.52110667     0.12500
H1191       H  0.25999208  0.69730650  0.54992693     0.15200
H1192       H  0.31778301  0.71955867  0.52062877     0.14000
H1193       H  0.23696045  0.80526618  0.48500874     0.11700
H1194       H  0.17457407  0.77746099  0.51189306     0.13700
C1195       C  0.26968000  0.53277675  0.52775619     0.19800
C1196       C  0.27101314  0.00153060  0.53114734    -0.18300
C1197       C  0.25137684  0.96923989  0.52183553    -0.10600
C1198       C  0.22667350  0.96566070  0.50813579     0.22000
C1199       C  0.22643925  0.49767164  0.50419188    -0.19900
C1200       C  0.24504977  0.52930680  0.51403964    -0.10800
C1201       C  0.20625662  0.93262726  0.49709476    -0.14900
C1202       C  0.20399151  0.90091376  0.50084952    -0.28800
C1203       C  0.28965675  0.56586050  0.53884082    -0.03000
C1204       C  0.29137682  0.59717499  0.53465183    -0.39600
H1205       H  0.28983200  0.00345813  0.54159757     0.13200
H1206       H  0.25626347  0.94755903  0.52525720     0.12800
H1207       H  0.20785067  0.49601806  0.49369418     0.12300
H1208       H  0.23935829  0.55056806  0.51091761     0.12500
H1209       H  0.19207609  0.93455633  0.48516356     0.15200
H1210       H  0.21457811  0.89678871  0.51356570     0.14000
H1211       H  0.30388742  0.56444769  0.55085682     0.11700
H1212       H  0.28071711  0.60049253  0.52179128     0.13700
C1213       C  0.46384164  0.73754555  0.52367061     0.19800
C1214       C  0.49082547  0.77298523  0.52577001    -0.18300
C1215       C  0.02215158  0.78373782  0.51619797    -0.10600
C1216       C  0.02823731  0.76186150  0.50417620     0.22000
C1217       C  0.00119248  0.72654307  0.50163074    -0.19900
C1218       C  0.46947252  0.71535075  0.51161922    -0.10800
C1219       C  0.06176819  0.77533988  0.49358196    -0.14900
C1220       C  0.09238377  0.80466787  0.49815903    -0.28800
C1221       C  0.43124311  0.72462167  0.53499755    -0.03000
C1222       C  0.40101142  0.69373936  0.53222351    -0.39600
H1223       H  0.48719962  0.79066216  0.53494613     0.13200
H1224       H  0.04169314  0.81141879  0.51811466     0.12800
H1225       H  0.00511193  0.70919770  0.49233545     0.12300
H1226       H  0.44981852  0.68767174  0.50985967     0.12500
H1227       H  0.06145705  0.75999126  0.48171008     0.15200
H1228       H  0.09469651  0.81810653  0.51105212     0.14000
H1229       H  0.43208202  0.74158597  0.54619228     0.11700
H1230       H  0.39759253  0.67785083  0.52013634     0.13700
C1231       C  0.83421473  0.16635719  0.57127050     0.46600
H1232       H  0.83580801  0.16675170  0.58644760    -0.02500
C1233       C  0.82994175  0.16439983  0.53576205     0.46600
H1234       H  0.82821391  0.16361830  0.52055715    -0.02500
C1235       C  0.87044737  0.18094007  0.56185656    -0.16200
C1236       C  0.81138543  0.12884466  0.56372109    -0.15900
C1237       C  0.81794890  0.18823583  0.56339850    -0.16300
C1238       C  0.86838770  0.18021165  0.54306636    -0.16300
C1239       C  0.80914053  0.12744164  0.54488585    -0.15800
C1240       C  0.81551861  0.18723862  0.54459508    -0.16200
C1241       C  0.66328923  0.33442278  0.49604438     0.46600
H1242       H  0.66232453  0.33384282  0.51126052    -0.02500
C1243       C  0.66545694  0.33574352  0.46042114     0.46600
H1244       H  0.66644819  0.33639685  0.44524896    -0.02500
C1245       C  0.67829625  0.31168199  0.48794858    -0.16200
C1246       C  0.62659446  0.32081178  0.48691651    -0.15900
C1247       C  0.68682842  0.37176915  0.48812811    -0.16300
C1248       C  0.67931588  0.31222565  0.46912253    -0.16300
C1249       C  0.62763304  0.32163985  0.46807944    -0.15800
C1250       C  0.68810394  0.37245918  0.46930924    -0.16200
O1251       O  0.67982877  0.37376204  0.63990758    -0.77400
C1252       C  0.71052640  0.29592824  0.65021697     0.83700
O1253       O  0.58157379  0.28272892  0.67492589    -0.78500
O1254       O  0.68236485  0.27971401  0.70705381    -0.80000
O1255       O  0.73612199  0.40915066  0.69930851    -0.79800
O1256       O  0.69524442  0.41602442  0.66100906    -0.78400
Zn1257     Zn  0.66155234  0.32783547  0.65382518     1.55700
O1258       O  0.74744825  0.36391303  0.70150776    -0.79800
Cd1259     Cd  0.68797452  0.38771598  0.68511864     1.59700
Cd1260     Cd  0.62403284  0.30687534  0.69305573     1.59600
O1261       O  0.65227951  0.39411116  0.70149774    -0.79800
O1262       O  0.66982087  0.33609536  0.67985810    -1.90300
Cd1263     Cd  0.70520629  0.32168826  0.68840983     1.59900
O1264       O  0.61303539  0.33858110  0.70972539    -0.79800
O1265       O  0.72306762  0.30423376  0.66643768    -0.78400
C1266       C  0.58079235  0.28330340  0.65750022     0.84100
C1267       C  0.69120741  0.40607995  0.64431756     0.83800
O1268       O  0.68613884  0.30198120  0.64425067    -0.77400
C1269       C  0.75543746  0.39603664  0.70485202     0.84600
O1270       O  0.60921469  0.29928230  0.64809221    -0.77500
C1271       C  0.62529327  0.37202779  0.71070492     0.84700
C1272       C  0.65106411  0.26201069  0.71366788     0.85000
O1273       O  0.62622220  0.26879490  0.70937286    -0.79900
C1274       C  0.50021468  0.00002089  0.79134560     0.46600
H1275       H  0.49787266  0.99876955  0.77617631    -0.02500
C1276       C  0.50718419  0.00320117  0.82671327     0.46600
H1277       H  0.51005675  0.00459196  0.84187424    -0.02500
C1278       C  0.96277649  0.48089414  0.80111377    -0.16200
C1279       C  0.51918206  0.48172931  0.79792164    -0.15900
C1280       C  0.51997430  0.03814420  0.79866978    -0.16300
C1281       C  0.96585860  0.48127019  0.81990621    -0.16300
C1282       C  0.52200434  0.48241005  0.81673434    -0.15800
C1283       C  0.52389358  0.03998529  0.81745228    -0.16200
C1284       C  0.67261187  0.33417076  0.86669062     0.46600
H1285       H  0.67469277  0.33462037  0.85151148    -0.02500
C1286       C  0.66752920  0.33309824  0.90215189     0.46600
H1287       H  0.66505291  0.33269753  0.91729996    -0.02500
C1288       C  0.65366702  0.35408040  0.87392274    -0.16200
C1289       C  0.65116699  0.29656756  0.87459649    -0.15900
C1290       C  0.70900946  0.35079075  0.87665643    -0.16300
C1291       C  0.65149620  0.35380704  0.89269487    -0.16300
C1292       C  0.64840482  0.29591364  0.89336232    -0.15800
C1293       C  0.70593654  0.35004930  0.89545429    -0.16200
C1294       C  0.82768046  0.17136930  0.12360311     0.46600
H1295       H  0.82491194  0.17473938  0.10868829    -0.02500
C1296       C  0.83304688  0.16221592  0.15846151     0.46600
H1297       H  0.83566500  0.15853162  0.17334629    -0.02500
C1298       C  0.79170175  0.15002667  0.13304907    -0.16200
C1299       C  0.84839838  0.15177533  0.12775239    -0.15900
C1300       C  0.84718390  0.20640126  0.13420864    -0.16300
C1301       C  0.79392210  0.14489972  0.15154597    -0.16300
C1302       C  0.85178120  0.14713782  0.14613773    -0.15800
C1303       C  0.84968894  0.20189095  0.15275168    -0.16200
C1304       C  0.49386555  0.49801783  0.20105982     0.46600
H1305       H  0.99101854  0.49796605  0.18600408    -0.02500
C1306       C  0.49959505  0.49860248  0.23655517     0.46600
H1307       H  0.50074747  0.00024667  0.25103564    -0.02500
C1308       C  0.97295288  0.01515587  0.21013589    -0.16200
C1309       C  0.97971820  0.46055134  0.20968246    -0.15900
C1310       C  0.53244250  0.02000805  0.20733061    -0.16300
C1311       C  0.97558904  0.01550982  0.22887601    -0.16300
C1312       C  0.98358903  0.46148048  0.22850288    -0.15800
C1313       C  0.53513246  0.02055000  0.22615371    -0.16200
O1314       O  0.84333546  0.20535333  0.30913969    -0.77400
C1315       C  0.86266471  0.11714721  0.31898823     0.83700
O1316       O  0.74090495  0.12906128  0.34073620    -0.78500
O1317       O  0.81657691  0.09626594  0.37500293    -0.80000
O1318       O  0.90600505  0.22513486  0.36851656    -0.79800
O1319       O  0.87348948  0.24729365  0.32998624    -0.78400
Zn1320     Zn  0.82197256  0.15828130  0.32191328     1.55700
O1321       O  0.89765312  0.17009908  0.37231272    -0.79800
Cd1322     Cd  0.86044844  0.21709666  0.35406364     1.59700
Cd1323     Cd  0.78162547  0.14793971  0.35984150     1.59600
O1324       O  0.83350735  0.23501707  0.37076702    -0.79800
O1325       O  0.82912012  0.16527066  0.34817004    -1.90300
Cd1326     Cd  0.85147213  0.13718114  0.35782442     1.59900
O1327       O  0.77992606  0.18748903  0.37478627    -0.79800
O1328       O  0.86621020  0.11585568  0.33627459    -0.78400
C1329       C  0.74091037  0.12320710  0.32367601     0.84100
C1330       C  0.86309947  0.23780835  0.31349968     0.83800
O1331       O  0.84635667  0.13224878  0.31189442    -0.77400
C1332       C  0.91574741  0.20358171  0.37497017     0.84600
O1333       O  0.76969372  0.13168388  0.31506203    -0.77500
C1334       C  0.80232477  0.22011809  0.37764956     0.84700
C1335       C  0.78585992  0.08833889  0.38122895     0.85000
O1336       O  0.77021854  0.10593559  0.37701010    -0.79900
O1337       O  0.53001024  0.06268732  0.98111296    -0.77400
C1338       C  0.55538267  0.47435004  0.98094062     0.83700
O1339       O  0.92119665  0.44912474  0.99377874    -0.78500
O1340       O  0.99532739  0.42680030  0.03318891    -0.80000
O1341       O  0.56247258  0.04750318  0.04357458    -0.79800
O1342       O  0.54525650  0.08869849  0.00846442    -0.78400
Zn1343     Zn  0.00876772  0.01135581  0.98537460     1.60200
O1344       O  0.56851542  0.00057255  0.03582268    -0.79800
Cd1345     Cd  0.52319203  0.04487009  0.02592670     1.59700
Cd1346     Cd  0.94928590  0.46680557  0.01823439     1.59600
O1347       O  0.98389657  0.04812400  0.04056919    -0.79800
O1348       O  0.00284727  0.99985808  0.01121493    -1.90300
Cd1349     Cd  0.52881820  0.47268706  0.01971088     1.59900
O1350       O  0.93407746  0.99827824  0.03319788    -0.79800
O1351       O  0.55151504  0.46264884  0.99728115    -0.78400
C1352       C  0.93060488  0.45767755  0.97713374     0.84100
C1353       C  0.54418290  0.09049960  0.99105704     0.83800
O1354       O  0.54229822  0.49369945  0.97559951    -0.77400
C1355       C  0.57759324  0.02845413  0.04530457     0.84600
O1356       O  0.96236713  0.48054643  0.97279506    -0.77500
C1357       C  0.95016213  0.02800735  0.04154954     0.84700
C1358       C  0.96292352  0.41133220  0.03817941     0.85000
O1359       O  0.94175816  0.42304706  0.03382562    -0.79900
C1360       C  0.67001750  0.08225065  0.28522620     0.19800
C1361       C  0.67169663  0.08367697  0.26601341    -0.18300
C1362       C  0.64064673  0.06723357  0.25540366    -0.10600
C1363       C  0.60715550  0.04882720  0.26385585     0.22000
C1364       C  0.60535338  0.04690564  0.28301838    -0.19900
C1365       C  0.63637440  0.06352583  0.29364475    -0.10800
C1366       C  0.57379430  0.02967513  0.25312439    -0.14900
C1367       C  0.56903426  0.04054222  0.23657381    -0.28800
C1368       C  0.70404630  0.09948376  0.29576687    -0.03000
C1369       C  0.70640971  0.10613468  0.31386631    -0.39600
H1370       H  0.69723816  0.09742634  0.25914712     0.13200
H1371       H  0.64302065  0.06818211  0.24064081     0.12800
H1372       H  0.57978763  0.03239699  0.28979548     0.12300
H1373       H  0.63365861  0.06079560  0.30834551     0.12500
H1374       H  0.55244574  0.00587937  0.25929820     0.15200
H1375       H  0.59033023  0.06452919  0.23052103     0.14000
H1376       H  0.72849481  0.10765315  0.28812034     0.11700
H1377       H  0.68277837  0.09954865  0.32185028     0.13700
C1378       C  0.92733285  0.37796084  0.25800120     0.19800
C1379       C  0.89727649  0.34443872  0.25537807    -0.18300
C1380       C  0.88559715  0.31873358  0.26927688    -0.10600
C1381       C  0.90382464  0.32613117  0.28620096     0.22000
C1382       C  0.93315683  0.36004964  0.28899520    -0.19900
C1383       C  0.94484760  0.38567235  0.27510957    -0.10800
C1384       C  0.89280718  0.29961840  0.30135706    -0.14900
C1385       C  0.87367250  0.26432602  0.29861816    -0.28800
C1386       C  0.93878515  0.40493068  0.24306951    -0.03000
C1387       C  0.97265953  0.43118668  0.24131683    -0.39600
H1388       H  0.88283214  0.33806496  0.24247882     0.13200
H1389       H  0.86202819  0.29347351  0.26674942     0.12800
H1390       H  0.94726417  0.36674832  0.30199087     0.12300
H1391       H  0.96713724  0.41166273  0.27801475     0.12500
H1392       H  0.90197059  0.30944997  0.31513735     0.15200
H1393       H  0.86551341  0.25394401  0.28486991     0.14000
H1394       H  0.91883083  0.40324282  0.23328486     0.11700
H1395       H  0.99283792  0.43333664  0.25101735     0.13700
C1396       C  0.89739075  0.09072986  0.27630887     0.19800
C1397       C  0.90759835  0.10523798  0.25868569    -0.18300
C1398       C  0.92443497  0.09278600  0.24677590    -0.10600
C1399       C  0.93130224  0.06535693  0.25213399     0.22000
C1400       C  0.92029651  0.05027391  0.26967579    -0.19900
C1401       C  0.90344501  0.06268759  0.28154481    -0.10800
C1402       C  0.95040367  0.05395045  0.23911689    -0.14900
C1403       C  0.95586561  0.02603363  0.24186512    -0.28800
C1404       C  0.88013917  0.10518743  0.28867517    -0.03000
C1405       C  0.87850110  0.10103546  0.30702534    -0.39600
H1406       H  0.90293125  0.12659919  0.25418722     0.13200
H1407       H  0.93228905  0.10479320  0.23332792     0.12800
H1408       H  0.92469138  0.02908063  0.27459189     0.12300
H1409       H  0.89496356  0.04984986  0.29472838     0.12500
H1410       H  0.46243984  0.07046779  0.22725405     0.15200
H1411       H  0.94735680  0.01071359  0.25438714     0.14000
H1412       H  0.86971785  0.12121159  0.28246785     0.11700
H1413       H  0.89050197  0.08695633  0.31371821     0.13700
C1414       C  0.90903508  0.33308779  0.07102256     0.19800
C1415       C  0.88409700  0.32691312  0.08484251    -0.18300
C1416       C  0.87420442  0.29873800  0.09716797    -0.10600
C1417       C  0.88899759  0.27605887  0.09580683     0.22000
C1418       C  0.91337982  0.28180842  0.08179177    -0.19900
C1419       C  0.92332408  0.30995657  0.06951985    -0.10800
C1420       C  0.87721699  0.24425524  0.10758286    -0.14900
C1421       C  0.86331893  0.24107087  0.12438356    -0.28800
C1422       C  0.91929965  0.36357800  0.05833024    -0.03000
C1423       C  0.95079179  0.37933042  0.04962850    -0.39600
H1424       H  0.87230345  0.34395502  0.08611803     0.13200
H1425       H  0.85426097  0.29426185  0.10738491     0.12800
H1426       H  0.92450162  0.26422436  0.08021692     0.12300
H1427       H  0.94157367  0.31286425  0.05866047     0.12500
H1428       H  0.88020555  0.22248252  0.10210883     0.15200
H1429       H  0.86328961  0.26375848  0.13058542     0.14000
H1430       H  0.90150652  0.37467270  0.05698453     0.11700
H1431       H  0.96986688  0.37008699  0.05186952     0.13700
C1432       C  0.70007252  0.09398062  0.11030828     0.19800
C1433       C  0.68202771  0.05901956  0.10373112    -0.18300
C1434       C  0.65405221  0.04869611  0.09118412    -0.10600
C1435       C  0.64357324  0.07327929  0.08506873     0.22000
C1436       C  0.66032555  0.10764103  0.09248649    -0.19900
C1437       C  0.68831793  0.11795404  0.10498287    -0.10800
C1438       C  0.61504630  0.06398134  0.07121401    -0.14900
C1439       C  0.60637224  0.03807353  0.05880552    -0.28800
C1440       C  0.73141459  0.10503557  0.12243048    -0.03000
C1441       C  0.75886904  0.13834793  0.12210271    -0.39600
H1442       H  0.69015731  0.03992837  0.10796641     0.13200
H1443       H  0.64070925  0.02145575  0.08642372     0.12800
H1444       H  0.65218589  0.12675554  0.08833996     0.12300
H1445       H  0.70077221  0.14474447  0.11041504     0.12500
H1446       H  0.60159426  0.07973773  0.07084397     0.15200
H1447       H  0.62043654  0.02296251  0.05850752     0.14000
H1448       H  0.73308751  0.08507576  0.13087922     0.11700
H1449       H  0.75918131  0.15721944  0.11210893     0.13700
C1450       C  0.92086298  0.08068183  0.07322390     0.19800
C1451       C  0.93008132  0.11660029  0.07499593    -0.18300
C1452       C  0.91193371  0.12694020  0.08728375    -0.10600
C1453       C  0.88430036  0.10144100  0.09822821     0.22000
C1454       C  0.87526605  0.06557802  0.09649500    -0.19900
C1455       C  0.89319986  0.05523410  0.08413035    -0.10800
C1456       C  0.86614638  0.11128980  0.11253333    -0.14900
C1457       C  0.86531043  0.14209900  0.11269881    -0.28800
C1458       C  0.94196657  0.07081740  0.06080985    -0.03000
C1459       C  0.92857391  0.03853401  0.05297199    -0.39600
H1460       H  0.95164313  0.13678632  0.06695320     0.13200
H1461       H  0.92047457  0.15496528  0.08856298     0.12800
H1462       H  0.85452043  0.04546012  0.10495956     0.12300
H1463       H  0.88609576  0.02746349  0.08362576     0.12500
H1464       H  0.85242861  0.09202949  0.12335092     0.15200
H1465       H  0.87536601  0.16007181  0.10109567     0.14000
H1466       H  0.96925070  0.09098327  0.05784311     0.11700
H1467       H  0.90069215  0.01896593  0.05486882     0.13700
C1468       C  0.89167797  0.09606254  0.17202090     0.19800
C1469       C  0.87590140  0.06130928  0.17898667    -0.18300
C1470       C  0.89672868  0.04572769  0.18388009    -0.10600
C1471       C  0.93419106  0.06491145  0.18229861     0.22000
C1472       C  0.94993948  0.09965261  0.17519122    -0.19900
C1473       C  0.92903994  0.11511643  0.17014306    -0.10800
C1474       C  0.95774662  0.05026908  0.18847238    -0.14900
C1475       C  0.94725495  0.02328175  0.20050943    -0.28800
C1476       C  0.86843858  0.11151792  0.16683890    -0.03000
C1477       C  0.87673093  0.13516270  0.15317109    -0.39600
H1478       H  0.84718267  0.04590554  0.18042776     0.13200
H1479       H  0.88315193  0.01860152  0.18875840     0.12800
H1480       H  0.97865940  0.11520427  0.17386273     0.12300
H1481       H  0.94230152  0.14222176  0.16515316     0.12500
H1482       H  0.98569339  0.06454094  0.18459046     0.15200
H1483       H  0.92044784  0.01059781  0.20595967     0.14000
H1484       H  0.84243160  0.10082618  0.17325782     0.11700
H1485       H  0.90116169  0.14347788  0.14554352     0.13700
C1486       C  0.69776930  0.10484970  0.17208911     0.19800
C1487       C  0.66881948  0.11069784  0.16844607    -0.18300
C1488       C  0.63516704  0.08912911  0.17626583    -0.10600
C1489       C  0.62940663  0.06082414  0.18797468     0.22000
C1490       C  0.65835235  0.05501561  0.19166003    -0.19900
C1491       C  0.69199243  0.07653394  0.18381429    -0.10800
C1492       C  0.59485983  0.03839634  0.19773787    -0.14900
C1493       C  0.56378086  0.03854996  0.19473461    -0.28800
C1494       C  0.73254952  0.12794565  0.16261216    -0.03000
C1495       C  0.76248155  0.12501557  0.16393998    -0.39600
H1496       H  0.67221006  0.13213088  0.15943638     0.13200
H1497       H  0.61407604  0.09521588  0.17328578     0.12800
H1498       H  0.65498841  0.03371122  0.20077030     0.12300
H1499       H  0.71311186  0.07063630  0.18699918     0.12500
H1500       H  0.59542097  0.02136719  0.20859473     0.15200
H1501       H  0.56076140  0.05231582  0.18299640     0.14000
H1502       H  0.73299922  0.14781443  0.15327324     0.11700
H1503       H  0.76453601  0.10773354  0.17408411     0.13700
C1504       C  0.88929145  0.29434064  0.17641475     0.19800
C1505       C  0.88588138  0.32436925  0.17213782    -0.18300
C1506       C  0.90823944  0.35749458  0.18015390    -0.10600
C1507       C  0.93490781  0.36163206  0.19276265     0.22000
C1508       C  0.93795433  0.33142593  0.19728109    -0.19900
C1509       C  0.91557240  0.29822138  0.18921078    -0.10800
C1510       C  0.95856739  0.39610893  0.20230915    -0.14900
C1511       C  0.96032938  0.42761364  0.19829203    -0.28800
C1512       C  0.86525101  0.26016707  0.16681399    -0.03000
C1513       C  0.87045381  0.23177165  0.16574450    -0.39600
H1514       H  0.86585873  0.32228349  0.16239455     0.13200
H1515       H  0.90395336  0.37941882  0.17651634     0.12800
H1516       H  0.95771532  0.33346857  0.20719044     0.12300
H1517       H  0.91884999  0.27583009  0.19320482     0.12500
H1518       H  0.97501031  0.39521023  0.21339332     0.15200
H1519       H  0.94710699  0.43012956  0.18617294     0.14000
H1520       H  0.84300414  0.25913336  0.15917843     0.11700
H1521       H  0.89097731  0.23044878  0.17381768     0.13700
C1522       C  0.84310005  0.39991272  0.95076549     0.19800
C1523       C  0.80730506  0.38752441  0.95528324    -0.18300
C1524       C  0.78076163  0.37285333  0.94190195    -0.10600
C1525       C  0.78949700  0.37011893  0.92367115     0.22000
C1526       C  0.82504255  0.38090872  0.91925297    -0.19900
C1527       C  0.85174593  0.39588579  0.93265987    -0.10800
C1528       C  0.76191946  0.35647873  0.90911258    -0.14900
C1529       C  0.73497169  0.36382233  0.90917521    -0.28800
C1530       C  0.87031850  0.41633906  0.96543351    -0.03000
C1531       C  0.90443572  0.44069615  0.96219852    -0.39600
H1532       H  0.79990236  0.38973311  0.96917267     0.13200
H1533       H  0.75338495  0.36355266  0.94588636     0.12800
H1534       H  0.83222364  0.37849342  0.90534081     0.12300
H1535       H  0.87893917  0.40399456  0.92882546     0.12500
H1536       H  0.76457096  0.34149879  0.89787163     0.15200
H1537       H  0.73231172  0.37869364  0.92045363     0.14000
H1538       H  0.86140067  0.40956986  0.97950187     0.11700
H1539       H  0.91349855  0.44904717  0.94829613     0.13700
C1540       C  0.57715623  0.16313176  0.95357140     0.19800
C1541       C  0.56834544  0.16295750  0.93502205    -0.18300
C1542       C  0.58625095  0.19351262  0.92428240    -0.10600
C1543       C  0.61345982  0.22525235  0.93192419     0.22000
C1544       C  0.62215729  0.22547094  0.95050425    -0.19900
C1545       C  0.60429006  0.19482633  0.96124053    -0.10800
C1546       C  0.63456091  0.25814766  0.92096829    -0.14900
C1547       C  0.62554593  0.26331167  0.90402931    -0.28800
C1548       C  0.55903962  0.12902030  0.96384603    -0.03000
C1549       C  0.56050188  0.12581612  0.98216092    -0.39600
H1550       H  0.54789321  0.13883885  0.92869165     0.13200
H1551       H  0.57911234  0.19148786  0.90996398     0.12800
H1552       H  0.64322989  0.24936049  0.95670076     0.12300
H1553       H  0.61265779  0.19605969  0.97532880     0.12500
H1554       H  0.65904432  0.27882357  0.92705368     0.15200
H1555       H  0.60138003  0.24335985  0.89750499     0.14000
H1556       H  0.54393808  0.10509373  0.95575093     0.11700
H1557       H  0.57407700  0.14903662  0.99082970     0.13700
C1558       C  0.59281048  0.42308019  0.95485833     0.19800
C1559       C  0.57519030  0.38841135  0.94781829    -0.18300
C1560       C  0.59223044  0.37734044  0.93530116    -0.10600
C1561       C  0.62758417  0.40052931  0.93007088     0.22000
C1562       C  0.64543706  0.43503146  0.93735161    -0.19900
C1563       C  0.62799508  0.44647342  0.94944165    -0.10800
C1564       C  0.64700340  0.38823874  0.91813700    -0.14900
C1565       C  0.63188845  0.36772040  0.90339457    -0.28800
C1566       C  0.57460546  0.43371234  0.96851581    -0.03000
C1567       C  0.57525205  0.46513222  0.96770246    -0.39600
H1568       H  0.54817771  0.36993018  0.95199453     0.13200
H1569       H  0.57821762  0.35031772  0.93018861     0.12800
H1570       H  0.67286579  0.45308606  0.93366684     0.12300
H1571       H  0.64228537  0.47314879  0.95498360     0.12500
H1572       H  0.67478223  0.39689856  0.92133411     0.15200
H1573       H  0.60522691  0.36138035  0.89905244     0.14000
H1574       H  0.55819475  0.41420476  0.97873401     0.11700
H1575       H  0.58859335  0.48327731  0.95641783     0.13700
C1576       C  0.61157769  0.40795894  0.85342361     0.19800
C1577       C  0.61958652  0.44362331  0.85395829    -0.18300
C1578       C  0.59851302  0.45481183  0.84445410    -0.10600
C1579       C  0.56838236  0.43025459  0.83446519     0.22000
C1580       C  0.56062053  0.39464340  0.83375974    -0.19900
C1581       C  0.58179635  0.38348219  0.84321516    -0.10800
C1582       C  0.54520545  0.44096211  0.82416250    -0.14900
C1583       C  0.54385211  0.47091261  0.82765320    -0.28800
C1584       C  0.63328448  0.39681814  0.86467061    -0.03000
C1585       C  0.63566260  0.36740739  0.86127717    -0.39600
H1586       H  0.64235004  0.46297634  0.86174627     0.13200
H1587       H  0.60624285  0.48271863  0.84485371     0.12800
H1588       H  0.53771152  0.37522832  0.82608895     0.12300
H1589       H  0.57415256  0.35557455  0.84288003     0.12500
H1590       H  0.52810090  0.42318120  0.81349226     0.15200
H1591       H  0.55751219  0.48694434  0.83952463     0.14000
H1592       H  0.64798788  0.41363286  0.87617154     0.11700
H1593       H  0.62456918  0.35253760  0.84873612     0.13700
C1594       C  0.56757030  0.13687276  0.83570792     0.19800
C1595       C  0.56003495  0.16501186  0.83429499    -0.18300
C1596       C  0.58041670  0.19671940  0.84389332    -0.10600
C1597       C  0.60915731  0.20112537  0.85499551     0.22000
C1598       C  0.61690224  0.17313985  0.85631488    -0.19900
C1599       C  0.59664198  0.14151349  0.84664521    -0.10800
C1600       C  0.63018542  0.23353393  0.86622384    -0.14900
C1601       C  0.63279429  0.26524693  0.86233513    -0.28800
C1602       C  0.54526045  0.10374905  0.82512405    -0.03000
C1603       C  0.54436491  0.07265419  0.82858495    -0.39600
H1604       H  0.53798421  0.16228246  0.82591581     0.13200
H1605       H  0.57293824  0.21728401  0.84291103     0.12800
H1606       H  0.63880315  0.17583579  0.86477569     0.12300
H1607       H  0.60430831  0.12107571  0.84767972     0.12500
H1608       H  0.64423099  0.23123096  0.87810090     0.15200
H1609       H  0.62244467  0.26919602  0.84948824     0.14000
H1610       H  0.52844451  0.10489402  0.81430986     0.11700
H1611       H  0.55770204  0.06988625  0.84059734     0.13700
C1612       C  0.87411465  0.42591866  0.84364305     0.19800
C1613       C  0.84702950  0.39023389  0.84286087    -0.18300
C1614       C  0.81447133  0.37899358  0.85172277    -0.10600
C1615       C  0.80806523  0.40336153  0.86151740     0.22000
C1616       C  0.83550160  0.43874886  0.86287064    -0.19900
C1617       C  0.86802251  0.45006940  0.85392684    -0.10800
C1618       C  0.77369479  0.39249479  0.87101629    -0.14900
C1619       C  0.74275146  0.36372395  0.86620748    -0.28800
C1620       C  0.90699218  0.43695464  0.83257698    -0.03000
C1621       C  0.93572530  0.46965926  0.83290858    -0.39600
H1622       H  0.85091099  0.37093312  0.83516030     0.13200
H1623       H  0.79457402  0.35117300  0.85095879     0.12800
H1624       H  0.83147593  0.45794739  0.87056940     0.12300
H1625       H  0.88769196  0.47788974  0.85485791     0.12500
H1626       H  0.77382348  0.40905746  0.88222961     0.15200
H1627       H  0.74132209  0.34938063  0.85377049     0.14000
H1628       H  0.90727315  0.41731534  0.82336376     0.11700
H1629       H  0.93836833  0.48888408  0.84318554     0.13700
C1630       C  0.89273989  0.45928172  0.76276503     0.19800
C1631       C  0.88587821  0.47879279  0.74943985    -0.18300
C1632       C  0.85711516  0.46169683  0.73726217    -0.10600
C1633       C  0.83488258  0.42457537  0.73811380     0.22000
C1634       C  0.84194331  0.40516457  0.75136107    -0.19900
C1635       C  0.87042924  0.42220900  0.76355876    -0.10800
C1636       C  0.80490854  0.40457032  0.72515461    -0.14900
C1637       C  0.78748235  0.41863204  0.71599035    -0.28800
C1638       C  0.92496584  0.47772666  0.77456213    -0.03000
C1639       C  0.92842098  0.46483854  0.79082245    -0.39600
H1640       H  0.90306835  0.50729726  0.74832600     0.13200
H1641       H  0.85306439  0.47746420  0.72695004     0.12800
H1642       H  0.82547275  0.37652010  0.75218515     0.12300
H1643       H  0.87550670  0.40597737  0.77314332     0.12500
H1644       H  0.79531294  0.37616195  0.72399738     0.15200
H1645       H  0.79508699  0.44646736  0.71766736     0.14000
H1646       H  0.94651561  0.50280846  0.76961083     0.11700
H1647       H  0.90564754  0.44181479  0.79648965     0.13700
C1648       C  0.60116766  0.18431531  0.74788554     0.19800
C1649       C  0.56495319  0.16385545  0.75236619    -0.18300
C1650       C  0.55327468  0.13513831  0.76441352    -0.10600
C1651       C  0.57760078  0.12595135  0.77230018     0.22000
C1652       C  0.61397382  0.14681439  0.76817582    -0.19900
C1653       C  0.62572557  0.17566774  0.75605417    -0.10800
C1654       C  0.56591171  0.09574561  0.78538921    -0.14900
C1655       C  0.53237369  0.06830599  0.78565079    -0.28800
C1656       C  0.61158914  0.21467271  0.73501217    -0.03000
C1657       C  0.64350390  0.23275959  0.72670300    -0.39600
H1658       H  0.54549126  0.17015585  0.74653831     0.13200
H1659       H  0.52520566  0.12073283  0.76775838     0.12800
H1660       H  0.63332888  0.14070660  0.77431010     0.12300
H1661       H  0.65398206  0.19119762  0.75340045     0.12500
H1662       H  0.58546049  0.09570218  0.79484566     0.15200
H1663       H  0.51366298  0.06582311  0.77499594     0.14000
H1664       H  0.59125765  0.22193367  0.73185362     0.11700
H1665       H  0.66437783  0.22607403  0.72920266     0.13700
C1666       C  0.59198170  0.42977898  0.73406775     0.19800
C1667       C  0.58061902  0.45303730  0.72721229    -0.18300
C1668       C  0.56100331  0.46362852  0.73824652    -0.10600
C1669       C  0.55346475  0.45199438  0.75646051     0.22000
C1670       C  0.56532662  0.42913122  0.76342209    -0.19900
C1671       C  0.58441537  0.41812942  0.75233242    -0.10800
C1672       C  0.53240802  0.46318871  0.76787291    -0.14900
C1673       C  0.53967828  0.47068251  0.78574797    -0.28800
C1674       C  0.61157959  0.41790129  0.72195743    -0.03000
C1675       C  0.60723121  0.38491586  0.72305671    -0.39600
H1676       H  0.58630683  0.46241613  0.71319047     0.13200
H1677       H  0.55199225  0.48118926  0.73263370     0.12800
H1678       H  0.55932300  0.41923140  0.77734220     0.12300
H1679       H  0.59344562  0.40073401  0.75811371     0.12500
H1680       H  0.51105842  0.46549694  0.76122017     0.15200
H1681       H  0.56238268  0.46958450  0.79154987     0.14000
H1682       H  0.62810570  0.43580231  0.71119397     0.11700
H1683       H  0.58836998  0.36596469  0.73277183     0.13700
C1684       C  0.72206636  0.28370713  0.43112325     0.19800
C1685       C  0.75019063  0.30263364  0.41887717    -0.18300
C1686       C  0.76312870  0.28489958  0.40795088    -0.10600
C1687       C  0.74801248  0.24768465  0.40904805     0.22000
C1688       C  0.71948093  0.22873674  0.42106536    -0.19900
C1689       C  0.70660906  0.24645913  0.43199668    -0.10800
C1690       C  0.75993259  0.22735785  0.39738409    -0.14900
C1691       C  0.79202121  0.24162129  0.38921961    -0.28800
C1692       C  0.70880960  0.30353221  0.44225643    -0.03000
C1693       C  0.69106925  0.29112154  0.45805713    -0.39600
H1694       H  0.76218528  0.33128834  0.41774062     0.13200
H1695       H  0.78434523  0.30041430  0.39844051     0.12800
H1696       H  0.70697688  0.20003078  0.42195470     0.12300
H1697       H  0.68407111  0.23071534  0.44076785     0.12500
H1698       H  0.74163439  0.19905643  0.39583372     0.15200
H1699       H  0.81148844  0.26941310  0.39117762     0.14000
H1700       H  0.71562982  0.33019955  0.43776909     0.11700
H1701       H  0.68676482  0.26596498  0.46364024     0.13700
C1702       C  0.99919470  0.26291916  0.40446719     0.19800
C1703       C  0.00688646  0.28969280  0.41747380    -0.18300
C1704       C  0.53602116  0.29942170  0.42965149    -0.10600
C1705       C  0.55890358  0.28479708  0.42811691     0.22000
C1706       C  0.55114441  0.25853795  0.41479282    -0.19900
C1707       C  0.52091660  0.24651461  0.40355870    -0.10800
C1708       C  0.59145548  0.29668229  0.43974834    -0.14900
C1709       C  0.59587677  0.31227678  0.45623352    -0.28800
C1710       C  0.96679645  0.25031612  0.39268357    -0.03000
C1711       C  0.94896109  0.21700345  0.38592054    -0.39600
H1712       H  0.98951250  0.30112401  0.41885018     0.13200
H1713       H  0.54149815  0.32043784  0.43931806     0.12800
H1714       H  0.56850834  0.24714010  0.41309999     0.12300
H1715       H  0.51621609  0.22660054  0.39332010     0.12500
H1716       H  0.61155015  0.29021940  0.43505574     0.15200
H1717       H  0.57485840  0.31638153  0.46181198     0.14000
H1718       H  0.95617474  0.26827656  0.39040883     0.11700
H1719       H  0.95789623  0.19806571  0.38924302     0.13700
C1720       C  0.72163379  0.44420043  0.43173131     0.19800
C1721       C  0.70364755  0.45726399  0.42085056    -0.18300
C1722       C  0.72201031  0.98491511  0.40943625    -0.10600
C1723       C  0.75932561  0.00540120  0.41114309     0.22000
C1724       C  0.77818660  0.49271195  0.42103768    -0.19900
C1725       C  0.75915242  0.46206859  0.43167586    -0.10800
C1726       C  0.78031012  0.03739077  0.39965094    -0.14900
C1727       C  0.76658753  0.05752901  0.39343129    -0.28800
C1728       C  0.70029304  0.41127441  0.44244602    -0.03000
C1729       C  0.71142005  0.40455235  0.45841171    -0.39600
H1730       H  0.67478823  0.44367088  0.42048276     0.13200
H1731       H  0.70747657  0.99171076  0.39955286     0.12800
H1732       H  0.80703290  0.50590500  0.42108061     0.12300
H1733       H  0.77382361  0.45205619  0.43950978     0.12500
H1734       H  0.80785880  0.04495002  0.39658507     0.15200
H1735       H  0.73985483  0.05137199  0.39743317     0.14000
H1736       H  0.67336489  0.39320690  0.43772908     0.11700
H1737       H  0.73691858  0.42384854  0.46419476     0.13700
C1738       C  0.78329780  0.21857889  0.60380185     0.19800
C1739       C  0.74872729  0.20298848  0.61088945    -0.18300
C1740       C  0.73906388  0.22206602  0.62276871    -0.10600
C1741       C  0.76420005  0.25674307  0.62813727     0.22000
C1742       C  0.79922422  0.27190536  0.62158402    -0.19900
C1743       C  0.80862290  0.25314265  0.60922413    -0.10800
C1744       C  0.75387093  0.27711594  0.64055518    -0.14900
C1745       C  0.72326399  0.27769641  0.63788452    -0.28800
C1746       C  0.79274201  0.19759681  0.59144140    -0.03000
C1747       C  0.80929250  0.21046542  0.57544847    -0.39600
H1748       H  0.72905359  0.17617867  0.60700746     0.13200
H1749       H  0.71206179  0.20959710  0.62794197     0.12800
H1750       H  0.81901866  0.29847104  0.62573679     0.12300
H1751       H  0.83568386  0.26526304  0.60415536     0.12500
H1752       H  0.77202422  0.29268668  0.65148594     0.15200
H1753       H  0.70684897  0.26440040  0.62598346     0.14000
H1754       H  0.78350742  0.16992302  0.59498147     0.11700
H1755       H  0.81549237  0.23694277  0.57096650     0.13700
C1756       C  0.94297003  0.22310130  0.59902041     0.19800
C1757       C  0.94209298  0.22505538  0.61814179    -0.18300
C1758       C  0.47673643  0.24501297  0.62776042    -0.10600
C1759       C  0.50874676  0.25091097  0.61958315     0.22000
C1760       C  0.00738270  0.24928156  0.60046861    -0.19900
C1761       C  0.97596381  0.23565904  0.59021984    -0.10800
C1762       C  0.54311037  0.26632258  0.62974120    -0.14900
C1763       C  0.54585619  0.26565260  0.64810024    -0.28800
C1764       C  0.90923437  0.20940022  0.58862496    -0.03000
C1765       C  0.90403771  0.19326003  0.57231689    -0.39600
H1766       H  0.91697065  0.21605946  0.62515610     0.13200
H1767       H  0.47582589  0.25130875  0.64198918     0.12800
H1768       H  0.03251734  0.25903939  0.59333904     0.12300
H1769       H  0.97774977  0.23583995  0.57544731     0.12500
H1770       H  0.56735070  0.27856536  0.62161935     0.15200
H1771       H  0.52218915  0.25242094  0.65653878     0.14000
H1772       H  0.88810601  0.21278378  0.59471548     0.11700
H1773       H  0.92496464  0.18953704  0.56626246     0.13700
C1774       C  0.71838433  0.49340473  0.61806305     0.19800
C1775       C  0.74516963  0.02748886  0.62276807    -0.18300
C1776       C  0.75763687  0.05380022  0.60928964    -0.10600
C1777       C  0.74662908  0.04517273  0.59096093     0.22000
C1778       C  0.72147730  0.00996620  0.58658494    -0.19900
C1779       C  0.70862689  0.48478157  0.59953647    -0.10800
C1780       C  0.76131103  0.07261868  0.57634198    -0.14900
C1781       C  0.79539934  0.09886924  0.57687889    -0.28800
C1782       C  0.70801225  0.46609898  0.63266909    -0.03000
C1783       C  0.69971675  0.43221991  0.62944178    -0.39600
H1784       H  0.75458496  0.03488632  0.63670112     0.13200
H1785       H  0.77587434  0.08096671  0.61329585     0.12800
H1786       H  0.71208833  0.00285617  0.57262706     0.12300
H1787       H  0.69156019  0.45756161  0.59526168     0.12500
H1788       H  0.74426436  0.07077317  0.56489906     0.15200
H1789       H  0.81223457  0.10045919  0.58836342     0.14000
H1790       H  0.70914913  0.47474481  0.64673962     0.11700
H1791       H  0.69948610  0.42316764  0.61557897     0.13700
C1792       C  0.73462256  0.27136962  0.50809497     0.19800
C1793       C  0.76884307  0.27643045  0.50443535    -0.18300
C1794       C  0.78224085  0.25727216  0.51398586    -0.10600
C1795       C  0.76147023  0.23223662  0.52740098     0.22000
C1796       C  0.72746728  0.22750636  0.53124487    -0.19900
C1797       C  0.71402073  0.24659889  0.52166981    -0.10800
C1798       C  0.77464444  0.21158325  0.53817561    -0.14900
C1799       C  0.80229538  0.20707799  0.53319185    -0.28800
C1800       C  0.72128955  0.29146414  0.49691037    -0.03000
C1801       C  0.69070025  0.29203066  0.50002705    -0.39600
H1802       H  0.78538351  0.29535833  0.49409908     0.13200
H1803       H  0.80897739  0.26262751  0.51095116     0.12800
H1804       H  0.71099159  0.20860735  0.54161764     0.12300
H1805       H  0.68737933  0.24127547  0.52485010     0.12500
H1806       H  0.76012102  0.19858269  0.55056558     0.15200
H1807       H  0.81467317  0.21628070  0.51990927     0.14000
H1808       H  0.73777979  0.30689328  0.48549895     0.11700
H1809       H  0.67523169  0.28006738  0.51223896     0.13700
C1810       C  0.76589554  0.02981653  0.52765028     0.19800
C1811       C  0.77410358  0.50271040  0.53092425    -0.18300
C1812       C  0.75537138  0.47106095  0.52098803    -0.10600
C1813       C  0.72942438  0.46728184  0.50799568     0.22000
C1814       C  0.71885665  0.99286973  0.50611320    -0.19900
C1815       C  0.73866226  0.02513398  0.51531982    -0.10800
C1816       C  0.70958493  0.43495042  0.49651457    -0.14900
C1817       C  0.70663349  0.40304676  0.50031988    -0.28800
C1818       C  0.78764397  0.06358207  0.53787022    -0.03000
C1819       C  0.78914038  0.09475825  0.53366752    -0.39600
H1820       H  0.79399937  0.50498741  0.54080965     0.13200
H1821       H  0.76185623  0.45009433  0.52330721     0.12800
H1822       H  0.69839718  0.99024693  0.49651571     0.12300
H1823       H  0.73214105  0.04604386  0.51278450     0.12500
H1824       H  0.69578223  0.43733543  0.48454833     0.15200
H1825       H  0.71667612  0.39867362  0.51315298     0.14000
H1826       H  0.80341305  0.06274732  0.54933368     0.11700
H1827       H  0.77699711  0.09749161  0.52116694     0.13700
C1828       C  0.96348305  0.23812915  0.52333876     0.19800
C1829       C  0.99029454  0.27353987  0.52596400    -0.18300
C1830       C  0.52324273  0.28722372  0.51626809    -0.10600
C1831       C  0.52952979  0.26539465  0.50429148     0.22000
C1832       C  0.50235080  0.23021963  0.50151262    -0.19900
C1833       C  0.97022730  0.21643048  0.51149471    -0.10800
C1834       C  0.56327174  0.27858131  0.49386315    -0.14900
C1835       C  0.59387184  0.30822189  0.49811429    -0.28800
C1836       C  0.92993319  0.22454323  0.53402487    -0.03000
C1837       C  0.89970962  0.19378935  0.53063658    -0.39600
H1838       H  0.98594772  0.29080760  0.53511833     0.13200
H1839       H  0.54296387  0.31472986  0.51844664     0.12800
H1840       H  0.50643534  0.21286186  0.49231126     0.12300
H1841       H  0.95083590  0.18877790  0.50946561     0.12500
H1842       H  0.56309118  0.26267981  0.48229501     0.15200
H1843       H  0.59619734  0.32250233  0.51069189     0.14000
H1844       H  0.93019635  0.24085222  0.54542540     0.11700
H1845       H  0.89694493  0.17870610  0.51829555     0.13700
C1846       C  0.83473971  0.66766470  0.57219281     0.46600
H1847       H  0.83599135  0.66850830  0.58737764    -0.02500
C1848       C  0.83119611  0.66471459  0.53666460     0.46600
H1849       H  0.82981061  0.66352830  0.52145496    -0.02500
C1850       C  0.87112980  0.68106715  0.56305403    -0.16200
C1851       C  0.81126971  0.63006462  0.56480310    -0.15900
C1852       C  0.81928515  0.68989531  0.56376923    -0.16300
C1853       C  0.86922343  0.67954029  0.54424475    -0.16300
C1854       C  0.80952431  0.62823113  0.54596707    -0.15800
C1855       C  0.81738296  0.68842782  0.54496619    -0.16200
C1856       C  0.66211047  0.83148994  0.49604955     0.46600
H1857       H  0.66099075  0.82997377  0.51125713    -0.02500
C1858       C  0.66467304  0.83506329  0.46046617     0.46600
H1859       H  0.66585624  0.83667249  0.44531706    -0.02500
C1860       C  0.67745213  0.80946149  0.48736413    -0.16200
C1861       C  0.62550406  0.81826315  0.48691622    -0.15900
C1862       C  0.68528977  0.86938531  0.48872601    -0.16300
C1863       C  0.67866104  0.81119463  0.46854200    -0.16300
C1864       C  0.62676664  0.82031093  0.46810654    -0.15800
C1865       C  0.68684043  0.87123635  0.46993378    -0.16200
O1866       O  0.67807527  0.87181952  0.64139289    -0.77400
C1867       C  0.70569868  0.79167536  0.65196458     0.83700
O1868       O  0.57985364  0.78903026  0.67841415    -0.78500
O1869       O  0.67930828  0.77784206  0.70818316    -0.80000
O1870       O  0.73880097  0.90791097  0.69914350    -0.79800
O1871       O  0.69512129  0.91519429  0.66200906    -0.78400
Zn1872     Zn  0.65916438  0.82626776  0.65594889     1.55700
O1873       O  0.74633998  0.86061545  0.70314443    -0.79800
Cd1874     Cd  0.68959720  0.88791108  0.68637222     1.59700
Cd1875     Cd  0.62378863  0.80955125  0.69586187     1.59600
O1876       O  0.65888588  0.89738305  0.70494479    -0.79800
O1877       O  0.66895677  0.83585739  0.68175402    -1.90300
Cd1878     Cd  0.70325976  0.81981190  0.68987670     1.59900
O1879       O  0.61917676  0.84300178  0.71449941    -0.79800
O1880       O  0.71982481  0.80137470  0.66779898    -0.78400
C1881       C  0.57843840  0.78711028  0.66098886     0.84100
C1882       C  0.69017468  0.90446583  0.64542094     0.83800
O1883       O  0.68101874  0.79761352  0.64633938    -0.77400
C1884       C  0.75635947  0.89350394  0.70550108     0.84600
O1885       O  0.60653669  0.79945459  0.65129217    -0.77500
C1886       C  0.63398085  0.87672949  0.71570488     0.84700
C1887       C  0.64791774  0.76069850  0.71469137     0.85000
O1888       O  0.62379706  0.76876812  0.71077108    -0.79900
C1889       C  0.49772861  0.49935416  0.79074213     0.46600
H1890       H  0.49556975  0.49952751  0.77565081    -0.02500
C1891       C  0.50379739  0.50096161  0.82616022     0.46600
H1892       H  0.50631640  0.50169397  0.84134083    -0.02500
C1893       C  0.96496403  0.98207267  0.80093768    -0.16200
C1894       C  0.52156407  0.98266214  0.79866599    -0.15900
C1895       C  0.51703153  0.53706032  0.79864945    -0.16300
C1896       C  0.96867661  0.98355100  0.81969286    -0.16300
C1897       C  0.52508501  0.98400744  0.81746715    -0.15800
C1898       C  0.52047677  0.53802037  0.81742227    -0.16200
C1899       C  0.67299399  0.83078715  0.86681131     0.46600
H1900       H  0.67441502  0.83022377  0.85162789    -0.02500
C1901       C  0.66933460  0.83205608  0.90228078     0.46600
H1902       H  0.66746674  0.83267584  0.91743794    -0.02500
C1903       C  0.65422574  0.85109212  0.87374202    -0.16200
C1904       C  0.65188182  0.79364194  0.87543589    -0.15900
C1905       C  0.70988585  0.84837996  0.87633945    -0.16300
C1906       C  0.65245585  0.85169998  0.89251157    -0.16300
C1907       C  0.65019558  0.79426346  0.89424711    -0.15800
C1908       C  0.70749724  0.84894764  0.89514501    -0.16200
C1909       C  0.82678699  0.67084319  0.12423542     0.46600
H1910       H  0.82310763  0.67299727  0.10932300    -0.02500
C1911       C  0.83360029  0.66349257  0.15916179     0.46600
H1912       H  0.83677005  0.66066113  0.17408299    -0.02500
C1913       C  0.79114030  0.65092015  0.13422090    -0.16200
C1914       C  0.84656870  0.65029779  0.12857616    -0.15900
C1915       C  0.84786651  0.70663171  0.13417894    -0.16300
C1916       C  0.79424500  0.64691063  0.15276248    -0.16300
C1917       C  0.85075980  0.64657835  0.14699401    -0.15800
C1918       C  0.85098889  0.70285073  0.15277926    -0.16200
C1919       C  0.49329835  0.99867734  0.20038251     0.46600
H1920       H  0.99139507  0.99834676  0.18548736    -0.02500
C1921       C  0.49917494  0.99981081  0.23585608     0.46600
H1922       H  0.50137006  0.49900083  0.25174534    -0.02500
C1923       C  0.97319847  0.51396289  0.21121563    -0.16200
C1924       C  0.97874791  0.96134576  0.20940034    -0.15900
C1925       C  0.53295243  0.51963630  0.20809367    -0.16300
C1926       C  0.97693821  0.51416558  0.22989933    -0.16300
C1927       C  0.98198039  0.96254309  0.22824689    -0.15800
C1928       C  0.53548810  0.51981504  0.22690947    -0.16200
O1929       O  0.84687905  0.70431659  0.30803302    -0.77400
C1930       C  0.86388289  0.61610757  0.31961927     0.83700
O1931       O  0.74262474  0.62910545  0.33989056    -0.78500
O1932       O  0.81769485  0.59801208  0.37513504    -0.80000
O1933       O  0.90669618  0.72648206  0.36811325    -0.79800
O1934       O  0.87624903  0.74705296  0.32862972    -0.78400
Zn1935     Zn  0.82396126  0.65802813  0.32143736     1.55700
O1936       O  0.89825181  0.67148420  0.37228851    -0.79800
Cd1937     Cd  0.86174187  0.71821492  0.35308991     1.59700
Cd1938     Cd  0.78305607  0.64931772  0.35921302     1.59600
O1939       O  0.83459052  0.73740492  0.36890324    -0.79800
O1940       O  0.83053399  0.66615144  0.34763502    -1.90300
Cd1941     Cd  0.85258743  0.63822561  0.35778694     1.59900
O1942       O  0.78118547  0.68982622  0.37322635    -0.79800
O1943       O  0.86773147  0.61593830  0.33692031    -0.78400
C1944       C  0.74299772  0.62309704  0.32286341     0.84100
C1945       C  0.86689583  0.73685520  0.31211931     0.83800
O1946       O  0.84745303  0.63073895  0.31218090    -0.77400
C1947       C  0.91622507  0.70497280  0.37483983     0.84600
O1948       O  0.77196350  0.63187359  0.31437953    -0.77500
C1949       C  0.80333729  0.72267477  0.37571764     0.84700
C1950       C  0.78731313  0.59065957  0.38158018     0.85000
O1951       O  0.77182805  0.60839545  0.37728033    -0.79900
O1952       O  0.53147662  0.56172030  0.98248564    -0.77400
C1953       C  0.55379418  0.97446316  0.97850644     0.83700
O1954       O  0.92205752  0.95225753  0.99372917    -0.78500
O1955       O  0.99479133  0.92533841  0.03044937    -0.80000
O1956       O  0.55949649  0.54647684  0.04651737    -0.79800
O1957       O  0.54606775  0.58768340  0.00988993    -0.78400
Zn1958     Zn  0.00853766  0.50867965  0.98657909     1.60200
O1959       O  0.56772528  0.50087606  0.03889265    -0.79800
Cd1960     Cd  0.52224201  0.54383891  0.02734554     1.59700
Cd1961     Cd  0.95158616  0.96959783  0.01774122     1.59600
O1962       O  0.97790377  0.54476717  0.04095076    -0.79800
O1963       O  0.00098029  0.49853654  0.01257623    -1.90300
Cd1964     Cd  0.52802595  0.97232544  0.01748752     1.59900
O1965       O  0.92937438  0.49368118  0.03365799    -0.79800
O1966       O  0.54918420  0.96166014  0.99462609    -0.78400
C1967       C  0.93045238  0.96191511  0.97710091     0.84100
C1968       C  0.54599790  0.58953904  0.99244629     0.83800
O1969       O  0.54208469  0.99525728  0.97368082    -0.77400
C1970       C  0.57503147  0.52792668  0.04873722     0.84600
O1971       O  0.96181689  0.98517189  0.97247400    -0.77500
C1972       C  0.94439241  0.52348163  0.04200801     0.84700
C1973       C  0.96323098  0.91190316  0.03667919     0.85000
O1974       O  0.94347783  0.92581573  0.03351543    -0.79900
C1975       C  0.67259968  0.58052819  0.28452595     0.19800
C1976       C  0.67319175  0.58605115  0.26555272    -0.18300
C1977       C  0.64174111  0.56968193  0.25524010    -0.10600
C1978       C  0.60899181  0.54718461  0.26375400     0.22000
C1979       C  0.60851436  0.54091385  0.28263978    -0.19900
C1980       C  0.63993222  0.55745200  0.29296601    -0.10800
C1981       C  0.57517969  0.52828446  0.25327213    -0.14900
C1982       C  0.56917363  0.54039474  0.23739094    -0.28800
C1983       C  0.70669997  0.59827255  0.29488806    -0.03000
C1984       C  0.70869634  0.60530691  0.31292722    -0.39600
H1985       H  0.69811377  0.60316031  0.25867701     0.13200
H1986       H  0.64339036  0.57406015  0.24059754     0.12800
H1987       H  0.58373041  0.52313330  0.28942333     0.12300
H1988       H  0.63853560  0.55144541  0.30743337     0.12500
H1989       H  0.55458549  0.50337752  0.25890833     0.15200
H1990       H  0.58936561  0.56544486  0.23173956     0.14000
H1991       H  0.73117965  0.60695795  0.28720503     0.11700
H1992       H  0.68472378  0.59842858  0.32068868     0.13700
C1993       C  0.92927082  0.87692778  0.25658030     0.19800
C1994       C  0.90395309  0.84157588  0.25277893    -0.18300
C1995       C  0.89337199  0.81549599  0.26640860    -0.10600
C1996       C  0.90794885  0.82439714  0.28423525     0.22000
C1997       C  0.93297558  0.85992363  0.28802000    -0.19900
C1998       C  0.94355569  0.88592407  0.27439489    -0.10800
C1999       C  0.89687426  0.79804985  0.29945688    -0.14900
C2000       C  0.87896219  0.76266839  0.29690705    -0.28800
C2001       C  0.93923249  0.90422943  0.24202053    -0.03000
C2002       C  0.97198213  0.93260557  0.24113348    -0.39600
H2003       H  0.89229914  0.83413080  0.23921280     0.13200
H2004       H  0.87323946  0.78881061  0.26289097     0.12800
H2005       H  0.94423456  0.86769416  0.30164074     0.12300
H2006       H  0.96221214  0.91315203  0.27800459     0.12500
H2007       H  0.90396829  0.80824866  0.31333509     0.15200
H2008       H  0.87236376  0.75164006  0.28322454     0.14000
H2009       H  0.91937054  0.90076470  0.23175867     0.11700
H2010       H  0.99178772  0.93625788  0.25143811     0.13700
C2011       C  0.89928629  0.58907274  0.27757690     0.19800
C2012       C  0.90976418  0.60374318  0.26001262    -0.18300
C2013       C  0.92768289  0.59212353  0.24836991    -0.10600
C2014       C  0.93525878  0.56529292  0.25394479     0.22000
C2015       C  0.92438191  0.55030100  0.27150319    -0.19900
C2016       C  0.90641334  0.56187342  0.28311116    -0.10800
C2017       C  0.95451520  0.55404988  0.24101116    -0.14900
C2018       C  0.95822448  0.52500786  0.24330065    -0.28800
C2019       C  0.88092267  0.60272748  0.28962356    -0.03000
C2020       C  0.87975253  0.59957099  0.30801173    -0.39600
H2021       H  0.90441387  0.62459130  0.25533758     0.13200
H2022       H  0.93557244  0.60409230  0.23493883     0.12800
H2023       H  0.92975430  0.52981711  0.27660046     0.12300
H2024       H  0.89793372  0.54911223  0.29629565     0.12500
H2025       H  0.46527222  0.57041206  0.22852383     0.15200
H2026       H  0.94866051  0.50883855  0.25550862     0.14000
H2027       H  0.86963007  0.61776039  0.28313318     0.11700
H2028       H  0.89254026  0.58647140  0.31495046     0.13700
C2029       C  0.91076285  0.83711820  0.07178069     0.19800
C2030       C  0.89456149  0.83599022  0.08860876    -0.18300
C2031       C  0.88278489  0.80634025  0.10016885    -0.10600
C2032       C  0.88677936  0.77699750  0.09504242     0.22000
C2033       C  0.90253426  0.77803653  0.07808355    -0.19900
C2034       C  0.91442738  0.80767626  0.06660061    -0.10800
C2035       C  0.87289637  0.74384552  0.10619973    -0.14900
C2036       C  0.86431562  0.74138186  0.12409434    -0.28800
C2037       C  0.92260275  0.86880203  0.05969947    -0.03000
C2038       C  0.94999615  0.87937707  0.04795388    -0.39600
H2039       H  0.89102628  0.85809702  0.09281196     0.13200
H2040       H  0.86981339  0.80631084  0.11284696     0.12800
H2041       H  0.90537974  0.75565001  0.07360478     0.12300
H2042       H  0.92570281  0.80701562  0.05348027     0.12500
H2043       H  0.87050199  0.72059024  0.09927227     0.15200
H2044       H  0.87006313  0.76530473  0.13138941     0.14000
H2045       H  0.90977416  0.88496033  0.06125007     0.11700
H2046       H  0.96497314  0.86517943  0.04742906     0.13700
C2047       C  0.69694615  0.59464813  0.11368243     0.19800
C2048       C  0.67665935  0.55881436  0.10864378    -0.18300
C2049       C  0.64779101  0.54794790  0.09659868    -0.10600
C2050       C  0.63859676  0.57283860  0.08948670     0.22000
C2051       C  0.65726523  0.60811683  0.09561874    -0.19900
C2052       C  0.68621457  0.61899457  0.10756641    -0.10800
C2053       C  0.61019161  0.56310653  0.07547401    -0.14900
C2054       C  0.60225737  0.53715626  0.06316348    -0.28800
C2055       C  0.72938705  0.60608516  0.12507944    -0.03000
C2056       C  0.75767110  0.63886004  0.12365847    -0.39600
H2057       H  0.68383875  0.53940645  0.11358294     0.13200
H2058       H  0.63293413  0.52016378  0.09282143     0.12800
H2059       H  0.65013007  0.62756064  0.09070653     0.12300
H2060       H  0.70030638  0.64654541  0.11187357     0.12500
H2061       H  0.59706017  0.57914697  0.07454174     0.15200
H2062       H  0.61634305  0.52201462  0.06347687     0.14000
H2063       H  0.73091385  0.58668909  0.13404562     0.11700
H2064       H  0.75792465  0.65688921  0.11316834     0.13700
C2065       C  0.91459091  0.57460218  0.07460312     0.19800
C2066       C  0.92637372  0.61084734  0.07752400    -0.18300
C2067       C  0.90869512  0.62170116  0.08977180    -0.10600
C2068       C  0.87884303  0.59642872  0.09953851     0.22000
C2069       C  0.86727590  0.56014605  0.09680637    -0.19900
C2070       C  0.88479431  0.54926175  0.08440541    -0.10800
C2071       C  0.86100169  0.60710002  0.11361346    -0.14900
C2072       C  0.86199321  0.63882753  0.11359133    -0.28800
C2073       C  0.93552939  0.56454366  0.06218266    -0.03000
C2074       C  0.92206461  0.53297137  0.05355237    -0.39600
H2075       H  0.94961103  0.63090952  0.07040410     0.13200
H2076       H  0.91925672  0.64992090  0.09196313     0.12800
H2077       H  0.84480240  0.54016359  0.10442453     0.12300
H2078       H  0.87559755  0.52110008  0.08299189     0.12500
H2079       H  0.84645986  0.58812550  0.12439964     0.15200
H2080       H  0.87292861  0.65655898  0.10194724     0.14000
H2081       H  0.96318222  0.58438340  0.05982245     0.11700
H2082       H  0.89406794  0.51344954  0.05496000     0.13700
C2083       C  0.89118272  0.59644020  0.17413694     0.19800
C2084       C  0.87629134  0.56550732  0.18494805    -0.18300
C2085       C  0.89612825  0.54868089  0.18970978    -0.10600
C2086       C  0.93184979  0.56268847  0.18397744     0.22000
C2087       C  0.94669486  0.59371635  0.17321550    -0.19900
C2088       C  0.92684296  0.61046531  0.16843393    -0.10800
C2089       C  0.95520882  0.54719564  0.18948156    -0.14900
C2090       C  0.94649777  0.52193162  0.20241337    -0.28800
C2091       C  0.86874594  0.61306645  0.16898086    -0.03000
C2092       C  0.87498190  0.63337268  0.15391500    -0.39600
H2093       H  0.84899001  0.55401715  0.18956000     0.13200
H2094       H  0.88299274  0.52470357  0.19782359     0.12800
H2095       H  0.97408792  0.60548131  0.16870634     0.12300
H2096       H  0.93993601  0.63478617  0.16054370     0.12500
H2097       H  0.98205250  0.55946540  0.18396290     0.15200
H2098       H  0.92083549  0.51061126  0.20907494     0.14000
H2099       H  0.84488170  0.60604039  0.17688198     0.11700
H2100       H  0.89722274  0.63823836  0.14520901     0.13700
C2101       C  0.69921768  0.60898782  0.17413757     0.19800
C2102       C  0.66954326  0.61315674  0.16965469    -0.18300
C2103       C  0.63583038  0.59102965  0.17729577    -0.10600
C2104       C  0.63082143  0.56387600  0.18967368     0.22000
C2105       C  0.66060621  0.56010007  0.19437205    -0.19900
C2106       C  0.69425723  0.58216005  0.18672998    -0.10800
C2107       C  0.59604506  0.54029943  0.19896818    -0.14900
C2108       C  0.56445044  0.53920136  0.19567619    -0.28800
C2109       C  0.73389521  0.63194909  0.16457581    -0.03000
C2110       C  0.76346219  0.62835918  0.16564079    -0.39600
H2111       H  0.67235025  0.63353479  0.15999276     0.13200
H2112       H  0.61405567  0.59557460  0.17353937     0.12800
H2113       H  0.65786414  0.53984096  0.20409992     0.12300
H2114       H  0.71601526  0.57779641  0.19075504     0.12500
H2115       H  0.59685598  0.52332320  0.20980432     0.15200
H2116       H  0.56122868  0.55295359  0.18397418     0.14000
H2117       H  0.73429000  0.65161880  0.15507688     0.11700
H2118       H  0.76551597  0.61100709  0.17575885     0.13700
C2119       C  0.89015176  0.79522815  0.17663745     0.19800
C2120       C  0.88258850  0.82338032  0.17490666    -0.18300
C2121       C  0.90481231  0.85663782  0.18283239    -0.10600
C2122       C  0.93553168  0.86280706  0.19270033     0.22000
C2123       C  0.94265233  0.83443736  0.19485237    -0.19900
C2124       C  0.92044489  0.80113437  0.18687240    -0.10800
C2125       C  0.95931982  0.89747731  0.20194234    -0.14900
C2126       C  0.95957400  0.92830164  0.19813396    -0.28800
C2127       C  0.86650139  0.76116053  0.16681614    -0.03000
C2128       C  0.87215499  0.73306857  0.16549662    -0.39600
H2129       H  0.85940949  0.81973888  0.16723620     0.13200
H2130       H  0.89737246  0.87713164  0.18137676     0.12800
H2131       H  0.96566847  0.83810356  0.20268477     0.12300
H2132       H  0.92741272  0.78040774  0.18877234     0.12500
H2133       H  0.97705970  0.89739276  0.21256181     0.15200
H2134       H  0.94516584  0.92998193  0.18627855     0.14000
H2135       H  0.84392614  0.75980015  0.15934563     0.11700
H2136       H  0.89261680  0.73166045  0.17356672     0.13700
C2137       C  0.84399626  0.90201737  0.95081399     0.19800
C2138       C  0.80788592  0.88776568  0.95515342    -0.18300
C2139       C  0.78190111  0.87283254  0.94152421    -0.10600
C2140       C  0.79159189  0.87166293  0.92327788     0.22000
C2141       C  0.82753331  0.88424343  0.91905096    -0.19900
C2142       C  0.85364034  0.89949668  0.93269401    -0.10800
C2143       C  0.76449483  0.85770500  0.90853525    -0.14900
C2144       C  0.73697429  0.86413118  0.90856381    -0.28800
C2145       C  0.87073249  0.91882419  0.96558922    -0.03000
C2146       C  0.90378574  0.94552327  0.96242108    -0.39600
H2147       H  0.79982533  0.88879413  0.96905530     0.13200
H2148       H  0.75418323  0.86212082  0.94530671     0.12800
H2149       H  0.83543290  0.88301715  0.90513007     0.12300
H2150       H  0.88122292  0.90904660  0.92903776     0.12500
H2151       H  0.76769709  0.84291401  0.89738320     0.15200
H2152       H  0.73395271  0.87885330  0.91980633     0.14000
H2153       H  0.86244557  0.91001371  0.97954898     0.11700
H2154       H  0.91184650  0.95563902  0.94863476     0.13700
C2155       C  0.58386276  0.66224451  0.95481900     0.19800
C2156       C  0.57845395  0.66117866  0.93580253    -0.18300
C2157       C  0.59588063  0.69193238  0.92518289    -0.10600
C2158       C  0.61915700  0.72483039  0.93335734     0.22000
C2159       C  0.62507521  0.72591813  0.95234138    -0.19900
C2160       C  0.60758190  0.69503185  0.96300932    -0.10800
C2161       C  0.63901460  0.75795625  0.92237922    -0.14900
C2162       C  0.62836178  0.76239966  0.90567646    -0.28800
C2163       C  0.56530083  0.62813265  0.96513163    -0.03000
C2164       C  0.56385266  0.62491589  0.98352746    -0.39600
H2165       H  0.56085034  0.63625632  0.92904433     0.13200
H2166       H  0.59160831  0.68943006  0.91052047     0.12800
H2167       H  0.64337340  0.75077273  0.95893652     0.12300
H2168       H  0.61332432  0.69707285  0.97753081     0.12500
H2169       H  0.66357625  0.77913177  0.92813991     0.15200
H2170       H  0.60352100  0.74195036  0.89988590     0.14000
H2171       H  0.55190411  0.60404418  0.95693396     0.11700
H2172       H  0.57611812  0.64818786  0.99228534     0.13700
C2173       C  0.59101439  0.92281562  0.95221222     0.19800
C2174       C  0.57594223  0.88673368  0.94756211    -0.18300
C2175       C  0.59337627  0.87538522  0.93543423    -0.10600
C2176       C  0.62668719  0.89986384  0.92818626     0.22000
C2177       C  0.64194692  0.93588485  0.93292164    -0.19900
C2178       C  0.62403809  0.94741263  0.94464614    -0.10800
C2179       C  0.64697752  0.88774207  0.91682242    -0.14900
C2180       C  0.63189975  0.86493198  0.90290308    -0.28800
C2181       C  0.57281813  0.93369747  0.96583187    -0.03000
C2182       C  0.57291498  0.96489365  0.96493286    -0.39600
H2183       H  0.55071562  0.86731806  0.95338545     0.13200
H2184       H  0.58147293  0.84732545  0.93222884     0.12800
H2185       H  0.66779332  0.95503113  0.92760165     0.12300
H2186       H  0.63662006  0.97529870  0.94829920     0.12500
H2187       H  0.67525939  0.89856530  0.91963891     0.15200
H2188       H  0.60452393  0.85637472  0.89887858     0.14000
H2189       H  0.55731983  0.91462821  0.97641521     0.11700
H2190       H  0.58545470  0.98276976  0.95345989     0.13700
C2191       C  0.61369380  0.90697183  0.85339467     0.19800
C2192       C  0.60860734  0.93415211  0.86083045    -0.18300
C2193       C  0.58720663  0.94566853  0.85193289    -0.10600
C2194       C  0.57049228  0.93046134  0.83514911     0.22000
C2195       C  0.57591530  0.90354764  0.82757958    -0.19900
C2196       C  0.59729807  0.89194880  0.83652450    -0.10800
C2197       C  0.54729128  0.94163581  0.82506583    -0.14900
C2198       C  0.54613528  0.97174519  0.82857208    -0.28800
C2199       C  0.63525136  0.89474933  0.86416417    -0.03000
C2200       C  0.63663229  0.86468875  0.86091086    -0.39600
H2201       H  0.62070792  0.94612551  0.87382528     0.13200
H2202       H  0.58352090  0.96599094  0.85857714     0.12800
H2203       H  0.56363315  0.89149554  0.81463862     0.12300
H2204       H  0.60077424  0.87131878  0.83005659     0.12500
H2205       H  0.53146695  0.92499557  0.81377513     0.15200
H2206       H  0.56057968  0.98845576  0.84005503     0.14000
H2207       H  0.64950371  0.91065648  0.87598966     0.11700
H2208       H  0.62446287  0.84894110  0.84877406     0.13700
C2209       C  0.56050539  0.63297706  0.83747965     0.19800
C2210       C  0.57036326  0.66611683  0.82948577    -0.18300
C2211       C  0.59199521  0.69764126  0.83898248    -0.10600
C2212       C  0.60387998  0.69667411  0.85689644     0.22000
C2213       C  0.59354896  0.66341844  0.86497149    -0.19900
C2214       C  0.57199550  0.63191931  0.85543829    -0.10800
C2215       C  0.62685141  0.72933394  0.86772386    -0.14900
C2216       C  0.63163015  0.76187188  0.86361507    -0.28800
C2217       C  0.53858933  0.60028184  0.82658852    -0.03000
C2218       C  0.54008002  0.57011571  0.82901107    -0.39600
H2219       H  0.56191244  0.66763428  0.81566412     0.13200
H2220       H  0.59965919  0.72246025  0.83198495     0.12800
H2221       H  0.60195467  0.66178835  0.87875850     0.12300
H2222       H  0.56407977  0.60684650  0.86232035     0.12500
H2223       H  0.63946590  0.72615094  0.87994783     0.15200
H2224       H  0.62057132  0.76627367  0.85118260     0.14000
H2225       H  0.52226176  0.60175118  0.81558845     0.11700
H2226       H  0.55584794  0.56803273  0.84009337     0.13700
C2227       C  0.87598843  0.92736370  0.84286665     0.19800
C2228       C  0.84886361  0.89174237  0.84129425    -0.18300
C2229       C  0.81568790  0.87976805  0.84969732    -0.10600
C2230       C  0.80857621  0.90326008  0.85987759     0.22000
C2231       C  0.83581521  0.93874414  0.86170273    -0.19900
C2232       C  0.86898577  0.95078132  0.85323138    -0.10800
C2233       C  0.77400672  0.89144714  0.86956837    -0.14900
C2234       C  0.74342857  0.86142168  0.86554167    -0.28800
C2235       C  0.90996195  0.93891896  0.83256629    -0.03000
C2236       C  0.93844336  0.97196547  0.83279701    -0.39600
H2237       H  0.85328314  0.87300172  0.83342483     0.13200
H2238       H  0.79599954  0.85195932  0.84837637     0.12800
H2239       H  0.83130249  0.95738009  0.86960756     0.12300
H2240       H  0.88866841  0.97853282  0.85474076     0.12500
H2241       H  0.77373535  0.90838214  0.88047889     0.15200
H2242       H  0.74199108  0.84614392  0.85348825     0.14000
H2243       H  0.91116096  0.91927904  0.82375087     0.11700
H2244       H  0.94019705  0.99159605  0.84256920     0.13700
C2245       C  0.89392679  0.95803284  0.76308615     0.19800
C2246       C  0.88588855  0.97694863  0.74997565    -0.18300
C2247       C  0.85690714  0.95917462  0.73805674    -0.10600
C2248       C  0.83545909  0.92192239  0.73897934     0.22000
C2249       C  0.84373488  0.90306842  0.75203345    -0.19900
C2250       C  0.87259128  0.92082712  0.76395840    -0.10800
C2251       C  0.80490710  0.90140778  0.72639540    -0.14900
C2252       C  0.78865532  0.91573695  0.71644403    -0.28800
C2253       C  0.92639133  0.97733427  0.77456195    -0.03000
C2254       C  0.93030803  0.96533608  0.79095610    -0.39600
H2255       H  0.90232982  0.00554741  0.74883173     0.13200
H2256       H  0.85215300  0.97474345  0.72791672     0.12800
H2257       H  0.82795909  0.87435306  0.75291516     0.12300
H2258       H  0.87871832  0.90514837  0.77340901     0.12500
H2259       H  0.79418404  0.87273028  0.72600282     0.15200
H2260       H  0.79737523  0.94394926  0.71725363     0.14000
H2261       H  0.94768559  0.00225265  0.76928306     0.11700
H2262       H  0.90773515  0.94246385  0.79685811     0.13700
C2263       C  0.59724190  0.68268845  0.74840239     0.19800
C2264       C  0.56117932  0.66276730  0.75322194    -0.18300
C2265       C  0.54979660  0.63486070  0.76572567    -0.10600
C2266       C  0.57425994  0.62590863  0.77363002     0.22000
C2267       C  0.61049186  0.64629843  0.76924001    -0.19900
C2268       C  0.62197121  0.67439388  0.75669917    -0.10800
C2269       C  0.56258790  0.59585953  0.78668407    -0.14900
C2270       C  0.52954192  0.56779242  0.78612759    -0.28800
C2271       C  0.60743389  0.71238375  0.73518174    -0.03000
C2272       C  0.63967801  0.73086063  0.72732854    -0.39600
H2273       H  0.54163685  0.66888231  0.74732823     0.13200
H2274       H  0.52185278  0.62073490  0.76933683     0.12800
H2275       H  0.62988524  0.64026596  0.77539629     0.12300
H2276       H  0.65015154  0.68953067  0.75381519     0.12500
H2277       H  0.58181654  0.59613027  0.79649546     0.15200
H2278       H  0.51158101  0.56524322  0.77501805     0.14000
H2279       H  0.58694244  0.71922701  0.73162217     0.11700
H2280       H  0.66068967  0.72449570  0.73014464     0.13700
C2281       C  0.61707276  0.94020083  0.74515970     0.19800
C2282       C  0.59842654  0.95803090  0.74024220    -0.18300
C2283       C  0.58376545  0.96981054  0.75373179    -0.10600
C2284       C  0.58842831  0.96476431  0.77235583     0.22000
C2285       C  0.60857472  0.94844044  0.77730612    -0.19900
C2286       C  0.62233681  0.93566679  0.76377314    -0.10800
C2287       C  0.57235815  0.97640651  0.78671638    -0.14900
C2288       C  0.53839875  0.96952718  0.78539326    -0.28800
C2289       C  0.63053461  0.92621611  0.73064898    -0.03000
C2290       C  0.62212409  0.89186540  0.73038491    -0.39600
H2291       H  0.59440584  0.96195688  0.72596023     0.13200
H2292       H  0.56893645  0.98305334  0.74962176     0.12800
H2293       H  0.61277637  0.94474195  0.79158964     0.12300
H2294       H  0.63718389  0.92238439  0.76779539     0.12500
H2295       H  0.58846578  0.99009958  0.79858811     0.15200
H2296       H  0.52303873  0.95645659  0.77319768     0.14000
H2297       H  0.64493898  0.94359011  0.71928919     0.11700
H2298       H  0.60531070  0.87410019  0.74110188     0.13700
C2299       C  0.72133859  0.78433269  0.42957387     0.19800
C2300       C  0.74874333  0.80374124  0.41700008    -0.18300
C2301       C  0.76231658  0.78667325  0.40595445    -0.10600
C2302       C  0.74850546  0.74964020  0.40723495     0.22000
C2303       C  0.72068563  0.73022169  0.41956213    -0.19900
C2304       C  0.70719620  0.74724235  0.43059788    -0.10800
C2305       C  0.76094345  0.72978061  0.39551370    -0.14900
C2306       C  0.79262303  0.74444184  0.38688945    -0.28800
C2307       C  0.70767931  0.80350164  0.44103267    -0.03000
C2308       C  0.69034880  0.79062104  0.45692917    -0.39600
H2309       H  0.75975147  0.83226949  0.41573440     0.13200
H2310       H  0.78299605  0.80248004  0.39625186     0.12800
H2311       H  0.70918457  0.70160291  0.42063072     0.12300
H2312       H  0.68526356  0.73103359  0.43958945     0.12500
H2313       H  0.74337114  0.70121878  0.39442976     0.15200
H2314       H  0.81150515  0.77256335  0.38835272     0.14000
H2315       H  0.71402926  0.83012025  0.43675685     0.11700
H2316       H  0.68635096  0.76541941  0.46221581     0.13700
C2317       C  0.99941611  0.76388473  0.40431795     0.19800
C2318       C  0.00738871  0.79044421  0.41748490    -0.18300
C2319       C  0.53725090  0.80200298  0.42906841    -0.10600
C2320       C  0.55974619  0.78693301  0.42761247     0.22000
C2321       C  0.55220737  0.76099943  0.41417106    -0.19900
C2322       C  0.52242016  0.74955831  0.40275182    -0.10800
C2323       C  0.59173471  0.79793636  0.43944142    -0.14900
C2324       C  0.59537219  0.81200489  0.45624555    -0.28800
C2325       C  0.96712414  0.75172462  0.39256265    -0.03000
C2326       C  0.94908922  0.71834522  0.38596258    -0.39600
H2327       H  0.99033305  0.80219950  0.41898326     0.13200
H2328       H  0.54277654  0.82286995  0.43886606     0.12800
H2329       H  0.56936255  0.74934772  0.41255791     0.12300
H2330       H  0.51790083  0.72983385  0.39241532     0.12500
H2331       H  0.61196833  0.79177334  0.43461767     0.15200
H2332       H  0.57412327  0.81566447  0.46191854     0.14000
H2333       H  0.95688254  0.76995594  0.39013631     0.11700
H2334       H  0.95768109  0.69923489  0.38951710     0.13700
C2335       C  0.72058080  0.94393951  0.43276338     0.19800
C2336       C  0.70294426  0.95454842  0.42013534    -0.18300
C2337       C  0.72260975  0.48797749  0.41036531    -0.10600
C2338       C  0.76015186  0.50626306  0.41047644     0.22000
C2339       C  0.77708741  0.99445852  0.42353351    -0.19900
C2340       C  0.75795916  0.96409110  0.43431890    -0.10800
C2341       C  0.78100275  0.53844803  0.39905612    -0.14900
C2342       C  0.76834646  0.56028448  0.39410990    -0.28800
C2343       C  0.69916942  0.91093855  0.44342137    -0.03000
C2344       C  0.70970344  0.90421337  0.45956786    -0.39600
H2345       H  0.67424360  0.93917745  0.41848598     0.13200
H2346       H  0.70766842  0.49671681  0.40186896     0.12800
H2347       H  0.80588144  0.00949300  0.42487558     0.12300
H2348       H  0.77262372  0.95612338  0.44348229     0.12500
H2349       H  0.80750373  0.54442310  0.39474417     0.15200
H2350       H  0.74271172  0.55559250  0.39914734     0.14000
H2351       H  0.67278112  0.89231718  0.43823248     0.11700
H2352       H  0.73451432  0.92381649  0.46582138     0.13700
C2353       C  0.78142699  0.71946209  0.60325808     0.19800
C2354       C  0.74913779  0.70164721  0.61277320    -0.18300
C2355       C  0.73877862  0.72024898  0.62462341    -0.10600
C2356       C  0.76104794  0.75686385  0.62750384     0.22000
C2357       C  0.79388555  0.77451825  0.61844194    -0.19900
C2358       C  0.80384904  0.75606391  0.60620127    -0.10800
C2359       C  0.75040269  0.77676679  0.64009258    -0.14900
C2360       C  0.71722602  0.77222358  0.63973875    -0.28800
C2361       C  0.79184340  0.69882902  0.59109749    -0.03000
C2362       C  0.80938797  0.71180962  0.57532738    -0.39600
H2363       H  0.73175779  0.67333447  0.61088639     0.13200
H2364       H  0.71361381  0.70593536  0.63176784     0.12800
H2365       H  0.81153736  0.80266875  0.62064546     0.12300
H2366       H  0.82935495  0.77020764  0.59936188     0.12500
H2367       H  0.77050607  0.79681922  0.64895620     0.15200
H2368       H  0.69822829  0.75467671  0.62959826     0.14000
H2369       H  0.78305823  0.67128240  0.59476622     0.11700
H2370       H  0.81527689  0.73801840  0.57052823     0.13700
C2371       C  0.94393091  0.72331876  0.60072985     0.19800
C2372       C  0.94432091  0.73484280  0.61875584    -0.18300
C2373       C  0.47713825  0.75336596  0.62909605    -0.10600
C2374       C  0.50607768  0.74924419  0.62343186     0.22000
C2375       C  0.00696301  0.74149283  0.60390894    -0.19900
C2376       C  0.97577314  0.72695717  0.59339406    -0.10800
C2377       C  0.54037745  0.76519587  0.63354297    -0.14900
C2378       C  0.54332011  0.77059798  0.65176614    -0.28800
C2379       C  0.91029351  0.70941301  0.58991692    -0.03000
C2380       C  0.90454290  0.69259034  0.57371609    -0.39600
H2381       H  0.92038392  0.73290451  0.62467771     0.13200
H2382       H  0.47882631  0.76812669  0.64139356     0.12800
H2383       H  0.03110818  0.74419372  0.59786007     0.12300
H2384       H  0.97729465  0.71951494  0.57944926     0.12500
H2385       H  0.56412048  0.77166426  0.62563350     0.15200
H2386       H  0.51973559  0.76250310  0.66007768     0.14000
H2387       H  0.88954646  0.71408789  0.59547397     0.11700
H2388       H  0.92475289  0.68774376  0.56770433     0.13700
C2389       C  0.72147417  0.99192904  0.61831626     0.19800
C2390       C  0.73897069  0.52926632  0.62300437    -0.18300
C2391       C  0.75150357  0.55584004  0.60967376    -0.10600
C2392       C  0.74355450  0.54706211  0.59107926     0.22000
C2393       C  0.72105131  0.51150423  0.58617193    -0.19900
C2394       C  0.70908278  0.98345852  0.60011493    -0.10800
C2395       C  0.75955503  0.57460984  0.57668208    -0.14900
C2396       C  0.79363631  0.60051926  0.57802696    -0.28800
C2397       C  0.71047750  0.96492676  0.63316850    -0.03000
C2398       C  0.69857822  0.93010819  0.63022691    -0.39600
H2399       H  0.74619808  0.53669809  0.63718658     0.13200
H2400       H  0.76774410  0.58326410  0.61391746     0.12800
H2401       H  0.71409661  0.50431502  0.57194683     0.12300
H2402       H  0.68977992  0.95655282  0.59625682     0.12500
H2403       H  0.74376086  0.57279926  0.56468280     0.15200
H2404       H  0.80905341  0.60199063  0.59013174     0.14000
H2405       H  0.71434880  0.97452667  0.64718319     0.11700
H2406       H  0.69571586  0.92000587  0.61638795     0.13700
C2407       C  0.73347605  0.76792676  0.50649914     0.19800
C2408       C  0.76804373  0.77376576  0.50303270    -0.18300
C2409       C  0.78194231  0.75524309  0.51276699    -0.10600
C2410       C  0.76133766  0.73006014  0.52616268     0.22000
C2411       C  0.72676257  0.72415145  0.52960192    -0.19900
C2412       C  0.71282741  0.74261529  0.51984802    -0.10800
C2413       C  0.77521165  0.71055076  0.53740559    -0.14900
C2414       C  0.80409968  0.70762792  0.53311633    -0.28800
C2415       C  0.72002378  0.78815945  0.49551598    -0.03000
C2416       C  0.68965776  0.78898432  0.49895660    -0.39600
H2417       H  0.78455485  0.79300368  0.49281731     0.13200
H2418       H  0.80900243  0.76135537  0.50994578     0.12800
H2419       H  0.71031570  0.70498472  0.53987524     0.12300
H2420       H  0.68584408  0.73654025  0.52277252     0.12500
H2421       H  0.76024869  0.69709951  0.54960620     0.15200
H2422       H  0.81726633  0.71728654  0.52005728     0.14000
H2423       H  0.73649306  0.80388181  0.48417755     0.11700
H2424       H  0.67437511  0.77675700  0.51118302     0.13700
C2425       C  0.76766198  0.53131545  0.52799649     0.19800
C2426       C  0.77192882  0.00104477  0.53092380    -0.18300
C2427       C  0.75205458  0.96871091  0.52172152    -0.10600
C2428       C  0.72529626  0.96431198  0.50912887     0.22000
C2429       C  0.72284206  0.49576568  0.50518789    -0.19900
C2430       C  0.74140142  0.52725669  0.51514697    -0.10800
C2431       C  0.70499480  0.93151565  0.49800297    -0.14900
C2432       C  0.70396165  0.90025624  0.50128325    -0.28800
C2433       C  0.78804851  0.56438607  0.53894049    -0.03000
C2434       C  0.78970058  0.59561599  0.53474855    -0.39600
H2435       H  0.79245242  0.00373864  0.54047983     0.13200
H2436       H  0.75844411  0.94770721  0.52425341     0.12800
H2437       H  0.70301441  0.49358342  0.49528962     0.12300
H2438       H  0.73455729  0.54795240  0.51281405     0.12500
H2439       H  0.69001385  0.93325124  0.48635634     0.15200
H2440       H  0.71529062  0.89615950  0.51376798     0.14000
H2441       H  0.80287532  0.56312839  0.55074793     0.11700
H2442       H  0.77854724  0.59872473  0.52198979     0.13700
C2443       C  0.96324024  0.73488938  0.52341716     0.19800
C2444       C  0.99013957  0.77026899  0.52576183    -0.18300
C2445       C  0.52273165  0.78612698  0.51609384    -0.10600
C2446       C  0.52851685  0.76385053  0.50420539     0.22000
C2447       C  0.50139173  0.72853583  0.50191094    -0.19900
C2448       C  0.96905915  0.71302815  0.51121593    -0.10800
C2449       C  0.56183853  0.77677350  0.49350949    -0.14900
C2450       C  0.59283341  0.80556989  0.49811136    -0.28800
C2451       C  0.93056151  0.72186305  0.53467385    -0.03000
C2452       C  0.90020521  0.69114352  0.53185977    -0.39600
H2453       H  0.98635227  0.78770039  0.53504644     0.13200
H2454       H  0.54244503  0.81381257  0.51781027     0.12800
H2455       H  0.50511477  0.71089745  0.49274398     0.12300
H2456       H  0.94936860  0.68541593  0.50924480     0.12500
H2457       H  0.56108241  0.76129388  0.48160975     0.15200
H2458       H  0.59545342  0.81902445  0.51103367     0.14000
H2459       H  0.93140574  0.73885382  0.54585800     0.11700
H2460       H  0.89674315  0.67516363  0.51979817     0.13700
loop_ 
_geom_bond_atom_site_label_1 
_geom_bond_atom_site_label_2 
_geom_bond_distance 
_geom_bond_site_symmetry_2 
_ccdc_geom_bond_type 
C1            H2   1.110       .  S
C1            C7   1.533       .  S
C1            C6   1.528       .  S
C1            C5   1.531       .  S
C3            H4   1.112       .  S
C3            C9   1.544       .  S
C3            C8   1.540       .  S
C3           C10   1.540       .  S
C5            C8   1.375       .  D
C5          C535   1.485       .  S
C6            C9   1.379       .  D
C6          C551   1.480       .  S
C7           C10   1.374       .  D
C7          C517   1.476       .  S
C8          C607   1.487       .  S
C9          C589   1.489       .  S
C10         C569   1.490       .  S
C11          H12   1.112       .  S
C11          C17   1.538       .  S
C11          C16   1.540       .  S
C11          C15   1.538       .  S
C13          H14   1.108       .  S
C13          C19   1.538       .  S
C13          C18   1.537       .  S
C13          C20   1.538       .  S
C15          C18   1.376       .  D
C15         C571   1.489       .  S
C16          C19   1.377       .  D
C16         C605   1.487       .  S
C17          C20   1.375       .  D
C17         C587   1.492       .  S
C18         C463   1.484       .  S
C19         C479   1.492       .  S
C20         C499   1.483       .  S
O21          C37   1.272       .  A
O21         Zn27   2.012       .  S
C22          O38   1.272       .  A
C22          O35   1.276       .  A
C22         C515   1.469       .  S
O23          C36   1.272       .  A
O23         Cd30   2.067       .  S
O24          C42   1.275       .  A
O24         Cd33   2.082       .  S
O25          C39   1.276       .  A
O25         Cd29   2.080       .  S
O26          C37   1.276       .  A
O26         Cd29   2.076       .  S
Zn27         O38   2.000       .  S
Zn27         O40   2.002       .  S
Zn27         O32   1.932       .  S
O28          C39   1.277       .  A
O28         Cd33   2.073       .  S
Cd29         O31   2.071       .  S
Cd29         O32   1.999       .  S
Cd30         O34   2.059       .  S
Cd30         O43   2.061       .  S
Cd30         O32   1.994       .  S
O31          C41   1.276       .  A
O32         Cd33   1.999       .  S
Cd33         O35   2.076       .  S
O34          C41   1.273       .  A
C36          O40   1.273       .  A
C36         C533   1.473       .  S
C37         C553   1.475       .  S
C39         C407   1.480       .  S
C41         C445   1.470       .  S
C42          O43   1.275       .  A
C42         C427   1.480       .  S
C44          H45   1.111   1_445  S
C44          C50   1.531       .  S
C44         C664   1.532   1_545  S
C44        C1893   1.535   1_445  S
C46          H47   1.112       .  S
C46          C53   1.541       .  S
C46         C667   1.540   1_545  S
C46        C1896   1.545   1_445  S
C48        C1889   1.536       .  S
C48          C51   1.377       .  D
C48         C409   1.491       .  S
C49         C659   1.543   1_455  S
C49          C52   1.376       .  D
C49         C443   1.489       .  S
C50          C53   1.379       .  D
C50         C425   1.479       .  S
C51        C1891   1.538       .  S
C51         C391   1.483       .  S
C52         C661   1.532       .  S
C52         C353   1.485       .  S
C53         C373   1.489       .  S
C54          H55   1.112       .  S
C54          C60   1.544       .  S
C54          C59   1.533       .  S
C54          C58   1.539       .  S
C56          H57   1.110       .  S
C56          C62   1.540       .  S
C56          C61   1.530       .  S
C56          C63   1.525       .  S
C58          C61   1.375       .  D
C58         C355   1.487       .  S
C59          C62   1.376       .  D
C59         C371   1.488       .  S
C60          C63   1.379       .  D
C60         C389   1.485       .  S
C61         C335   1.479       .  S
C62         C317   1.481       .  S
C63         C299   1.480       .  S
C64          H65   1.111       .  S
C64          C70   1.533       .  S
C64          C69   1.526       .  S
C64          C68   1.525       .  S
C66          H67   1.111       .  S
C66          C72   1.550       .  S
C66          C71   1.551       .  S
C66          C73   1.551       .  S
C68          C71   1.378       .  D
C68         C211   1.476       .  S
C69          C72   1.374       .  D
C69         C227   1.492       .  S
C70          C73   1.378       .  D
C70         C191   1.489       .  S
C71         C265   1.500       .  S
C72         C247   1.486       .  S
C73         C283   1.492       .  S
C74        H1305   1.111       .  S
C74         C695   1.556   1_655  S
C74        C1309   1.559       .  S
C74        C1923   1.548       .  S
H75        C1304   1.111       .  S
C76         H692   1.111       .  S
C76        C1312   1.525   1_455  S
C76        C1926   1.528   1_455  S
C76         C698   1.529       .  S
H77         C691   1.110   1_545  S
C78        C1919   1.544   1_545  S
C78          C81   1.371       .  D
C78         C245   1.481       .  S
C79        C1304   1.559       .  S
C79          C82   1.381       .  D
C79         C281   1.496       .  S
C80         C689   1.552   1_445  S
C80          C83   1.377       .  D
C80         C263   1.499       .  S
C81        C1921   1.529   1_545  S
C81         C173   1.489       .  S
C82        C1306   1.525       .  S
C82         C157   1.484       .  S
C83         C691   1.530   1_445  S
C83         C137   1.485       .  S
O84         C100   1.272       .  A
O84         Zn90   2.002       .  S
C85         O101   1.274       .  A
C85          O98   1.274       .  A
C85         C175   1.479       .  S
O86          C99   1.272       .  A
O86         Cd93   2.063       .  S
O87         C105   1.277       .  A
O87         Cd96   2.083       .  S
O88         C102   1.280       .  A
O88         Cd92   2.104       .  S
O89         C100   1.280       .  A
O89         Cd92   2.102       .  S
Zn90        O101   2.019       .  S
Zn90        O103   2.020       .  S
Zn90         O95   1.942       .  S
O91         C102   1.275       .  A
O91         Cd96   2.070       .  S
Cd92         O94   2.087       .  S
Cd92         O95   2.013       .  S
Cd93         O97   2.058       .  S
Cd93        O106   2.053       .  S
Cd93         O95   1.996       .  S
O94         C104   1.276       .  A
O95         Cd96   2.000       .  S
Cd96         O98   2.076       .  S
O97         C104   1.274       .  A
C99         O103   1.275       .  A
C99         C139   1.475       .  S
C100        C155   1.480       .  S
C102        C481   1.483       .  S
C104        C461   1.478       .  S
C105        O106   1.272       .  A
C105        C497   1.472       .  S
O107        C123   1.274       .  A
O107      Zn1343   2.002       .  S
C108        O124   1.272       .  A
C108        O121   1.273       .  A
C108        C337   1.472       .  S
O109        C122   1.277       .  A
O109       Cd116   2.079   1_556  S
O110        C128   1.271       .  A
O110      Cd1349   2.051       .  S
O111        C125   1.277       .  A
O111       Cd115   2.072       .  S
O112        C123   1.274   1_554  A
O112       Cd115   2.078       .  S
Zn113      O1337   2.001       .  S
Zn113      O1969   2.022   1_545  S
Zn113       O741   2.000   1_545  S
Zn113       O118   1.937   1_546  S
O114        C125   1.273       .  A
O114       Cd734   2.057   1_545  S
Cd115      O1347   2.082   1_455  S
Cd115      O1348   1.999   1_545  S
Cd116       O129   2.081       .  S
Cd116       O735   2.076       .  S
Cd116       O733   2.000       .  S
O117        C127   1.277       .  A
O117      Cd1345   2.085       .  S
O118      Cd1345   2.004   1_565  S
O118       Cd731   2.000       .  S
O118      Cd1964   1.991       .  S
Cd119       O121   2.062   1_554  S
Cd119      O1340   2.046   1_455  S
Cd119       O729   2.048       .  S
Cd119      O1963   1.988       .  S
O120        C127   1.277   1_565  A
O120       Cd731   2.083       .  S
C122        O126   1.274       .  A
C122        C301   1.477       .  S
C123        C319   1.477       .  S
O124      Zn1958   2.020       .  S
C125        C209   1.471       .  S
O126       Zn728   2.016       .  S
C127        C229   1.483       .  S
C128        O129   1.276       .  A
C128        C193   1.471       .  S
C130        C138   1.484       .  S
C130        C131   1.403       .  A
C130        C135   1.408       .  A
C131        C132   1.396       .  A
C131        H140   1.085       .  S
C132        C133   1.405       .  A
C132        H141   1.082       .  S
C133        C136   1.480       .  S
C133        C134   1.403       .  A
C134        C135   1.397       .  A
C134        H142   1.084       .  S
C135        H143   1.081       .  S
C136        C137   1.345       .  D
C136        H144   1.086       .  S
C137        H145   1.085       .  S
C138        C139   1.345       .  D
C138        H146   1.089       .  S
C139        H147   1.086       .  S
C148        C156   1.491       .  S
C148        C149   1.403       .  A
C148        C153   1.409       .  A
C149        C150   1.402       .  A
C149        H158   1.084       .  S
C150        C151   1.411       .  A
C150        H159   1.080       .  S
C151        C154   1.493       .  S
C151        C152   1.402       .  A
C152        C153   1.398       .  A
C152        H160   1.083       .  S
C153        H161   1.081       .  S
C154        C155   1.345       .  D
C154        H162   1.087       .  S
C155        H163   1.084       .  S
C156        C157   1.345       .  D
C156        H164   1.087       .  S
C157        H165   1.085       .  S
C166        C174   1.492       .  S
C166        C167   1.405       .  A
C166        C171   1.408       .  A
C167        C168   1.400       .  A
C167        H176   1.083       .  S
C168        C169   1.405       .  A
C168        H177   1.084       .  S
C169        C172   1.492       .  S
C169        C170   1.409       .  A
C170        C171   1.398       .  A
C170        H178   1.080       .  S
C171        H179   1.080       .  S
C172        C173   1.348       .  D
C172       H1410   1.085       .  S
C173        H181   1.082       .  S
C174        C175   1.349       .  D
C174        H182   1.086       .  S
C175        H183   1.082       .  S
H180       C1402   1.085       .  S
C184        C192   1.485       .  S
C184        C185   1.404       .  A
C184        C189   1.407       .  A
C185        C186   1.400       .  A
C185        H194   1.081       .  S
C186        C187   1.407       .  A
C186        H195   1.084       .  S
C187        C190   1.482       .  S
C187        C188   1.402       .  A
C188        C189   1.394       .  A
C188        H196   1.082       .  S
C189        H197   1.083       .  S
C190        C191   1.344       .  D
C190        H198   1.084       .  S
C191        H199   1.078       .  S
C192        C193   1.344       .  D
C192        H200   1.086       .  S
C193        H201   1.084       .  S
C202        C210   1.480       .  S
C202        C203   1.400       .  A
C202        C207   1.407       .  A
C203        C204   1.397       .  A
C203        H212   1.083       .  S
C204        C205   1.409       .  A
C204        H213   1.081       .  S
C205        C208   1.482       .  S
C205        C206   1.401       .  A
C206        C207   1.395       .  A
C206        H214   1.082       .  S
C207        H215   1.083       .  S
C208        C209   1.343       .  D
C208        H216   1.086       .  S
C209        H217   1.084       .  S
C210        C211   1.340       .  D
C210        H218   1.087       .  S
C211        H219   1.085       .  S
C220        C228   1.493       .  S
C220        C221   1.405       .  A
C220        C225   1.408       .  A
C221        C222   1.402       .  A
C221        H230   1.083       .  S
C222        C223   1.408       .  A
C222        H231   1.082       .  S
C223        C226   1.490       .  S
C223        C224   1.404       .  A
C224        C225   1.400       .  A
C224        H232   1.083       .  S
C225        H233   1.082       .  S
C226        C227   1.347       .  D
C226        H234   1.087       .  S
C227        H235   1.085       .  S
C228        C229   1.349       .  D
C228        H236   1.087       .  S
C229        H237   1.085       .  S
C238        C246   1.499       .  S
C238        C239   1.404       .  A
C238        C243   1.414       .  A
C239        C240   1.400       .  A
C239        H248   1.084       .  S
C240        C241   1.410       .  A
C240        H249   1.081       .  S
C241        C244   1.493       .  S
C241        C242   1.401       .  A
C242        C243   1.400       .  A
C242        H250   1.084       .  S
C243        H251   1.077       .  S
C244        C245   1.343       .  D
C244        H252   1.087       .  S
C245        H253   1.084       .  S
C246        C247   1.344       .  D
C246        H254   1.087       .  S
C247        H255   1.080       .  S
C256        C264   1.500       .  S
C256        C257   1.408       .  A
C256        C261   1.408       .  A
C257        C258   1.403       .  A
C257        H266   1.083       .  S
C258        C259   1.407       .  A
C258        H267   1.080       .  S
C259        C262   1.498       .  S
C259        C260   1.408       .  A
C260        C261   1.404       .  A
C260        H268   1.084       .  S
C261        H269   1.079       .  S
C262        C263   1.355       .  D
C262        H270   1.087       .  S
C263        H271   1.084       .  S
C264        C265   1.355       .  D
C264        H272   1.085       .  S
C265        H273   1.082       .  S
C274        C282   1.497       .  S
C274        C275   1.406       .  A
C274        C279   1.409       .  A
C275        C276   1.400       .  A
C275        H284   1.083       .  S
C276        C277   1.407       .  A
C276        H285   1.081       .  S
C277        C280   1.496       .  S
C277        C278   1.407       .  A
C278        C279   1.404       .  A
C278        H286   1.084       .  S
C279        H287   1.080       .  S
C280        C281   1.352       .  D
C280        H288   1.087       .  S
C281        H289   1.085       .  S
C282        C283   1.349       .  D
C282        H290   1.087       .  S
C283        H291   1.083       .  S
C292        C300   1.485       .  S
C292        C293   1.402       .  A
C292        C297   1.410       .  A
C293        C294   1.396       .  A
C293        H302   1.084       .  S
C294        C295   1.406       .  A
C294        H303   1.082       .  S
C295        C298   1.481       .  S
C295        C296   1.401       .  A
C296        C297   1.400       .  A
C296        H304   1.084       .  S
C297        H305   1.081       .  S
C298        C299   1.343       .  D
C298        H306   1.086       .  S
C299        H307   1.086       .  S
C300        C301   1.344       .  D
C300        H308   1.088       .  S
C301        H309   1.086       .  S
C310        C318   1.487       .  S
C310        C311   1.404       .  A
C310        C315   1.409       .  A
C311        C312   1.394       .  A
C311        H320   1.084       .  S
C312        C313   1.406       .  A
C312        H321   1.080       .  S
C313        C316   1.482       .  S
C313        C314   1.403       .  A
C314        C315   1.399       .  A
C314        H322   1.084       .  S
C315        H323   1.079       .  S
C316        C317   1.344       .  D
C316        H324   1.086       .  S
C317        H325   1.083       .  S
C318        C319   1.347       .  D
C318        H326   1.088       .  S
C319        H327   1.083       .  S
C328        C336   1.476       .  S
C328        C329   1.401       .  A
C328        C333   1.404       .  A
C329        C330   1.397       .  A
C329        H338   1.084       .  S
C330        C331   1.405       .  A
C330        H339   1.082       .  S
C331        C334   1.478       .  S
C331        C332   1.403       .  A
C332        C333   1.399       .  A
C332        H340   1.084       .  S
C333        H341   1.082       .  S
C334        C335   1.342       .  D
C334        H342   1.088       .  S
C335        H343   1.087       .  S
C336        C337   1.341       .  D
C336        H344   1.088       .  S
C337        H345   1.087       .  S
C346        C354   1.485       .  S
C346        C347   1.403       .  A
C346        C351   1.408       .  A
C347        C348   1.396       .  A
C347        H356   1.083       .  S
C348        C349   1.406       .  A
C348        H357   1.082       .  S
C349        C352   1.486       .  S
C349        C350   1.404       .  A
C350        C351   1.400       .  A
C350        H358   1.083       .  S
C351        H359   1.082       .  S
C352        C353   1.346       .  D
C352        H360   1.087       .  S
C353        H361   1.084       .  S
C354        C355   1.345       .  D
C354        H362   1.085       .  S
C355        H363   1.084       .  S
C364        C372   1.492       .  S
C364        C365   1.404       .  A
C364        C369   1.410       .  A
C365        C366   1.400       .  A
C365        H374   1.083       .  S
C366        C367   1.408       .  A
C366        H375   1.081       .  S
C367        C370   1.489       .  S
C367        C368   1.403       .  A
C368        C369   1.399       .  A
C368        H376   1.082       .  S
C369        H377   1.081       .  S
C370        C371   1.346       .  D
C370        H378   1.085       .  S
C371        H379   1.083       .  S
C372        C373   1.347       .  D
C372        H380   1.084       .  S
C373        H381   1.082       .  S
C382        C390   1.491       .  S
C382        C383   1.404       .  A
C382        C387   1.410       .  A
C383        C384   1.397       .  A
C383        H392   1.084       .  S
C384        C385   1.407       .  A
C384        H393   1.081       .  S
C385        C388   1.487       .  S
C385        C386   1.402       .  A
C386        C387   1.399       .  A
C386        H394   1.084       .  S
C387        H395   1.079       .  S
C388        C389   1.346       .  D
C388        H396   1.087       .  S
C389        H397   1.085       .  S
C390        C391   1.344       .  D
C390        H398   1.087       .  S
C391        H399   1.082       .  S
C400        C408   1.488       .  S
C400        C401   1.405       .  A
C400        C405   1.406       .  A
C401        C402   1.402       .  A
C401        H410   1.082       .  S
C402        C403   1.407       .  A
C402        H411   1.083       .  S
C403        C406   1.487       .  S
C403        C404   1.403       .  A
C404        C405   1.396       .  A
C404        H412   1.082       .  S
C405        H413   1.083       .  S
C406        C407   1.347       .  D
C406        H414   1.086       .  S
C407        H415   1.084       .  S
C408        C409   1.347       .  D
C408        H416   1.085       .  S
C409        H417   1.080       .  S
C418        C426   1.488       .  S
C418        C419   1.403       .  A
C418        C423   1.409       .  A
C419        C420   1.394       .  A
C419        H428   1.082       .  S
C420        C421   1.406       .  A
C420        H429   1.082       .  S
C421        C424   1.487       .  S
C421        C422   1.404       .  A
C422        C423   1.402       .  A
C422        H430   1.082       .  S
C423        H431   1.081       .  S
C424        C425   1.344       .  D
C424        H432   1.086       .  S
C425        H433   1.084       .  S
C426        C427   1.348       .  D
C426        H434   1.087       .  S
C427        H435   1.083       .  S
C436        C444   1.478       .  S
C436        C437   1.402       .  A
C436        C441   1.405       .  A
C437        C438   1.398       .  A
C437        H446   1.083       .  S
C438        C439   1.402       .  A
C438        H447   1.084       .  S
C439        C442   1.479       .  S
C439        C440   1.406       .  A
C440        C441   1.395       .  A
C440        H448   1.082       .  S
C441        H449   1.083       .  S
C442        C443   1.343       .  D
C442        H450   1.083       .  S
C443        H451   1.084       .  S
C444        C445   1.343       .  D
C444        H452   1.087       .  S
C445        H453   1.086       .  S
C454        C462   1.483       .  S
C454        C455   1.402       .  A
C454        C459   1.406       .  A
C455        C456   1.398       .  A
C455        H464   1.084       .  S
C456        C457   1.408       .  A
C456        H465   1.080       .  S
C457        C460   1.488       .  S
C457        C458   1.405       .  A
C458        C459   1.398       .  A
C458        H466   1.083       .  S
C459        H467   1.082       .  S
C460        C461   1.349       .  D
C460        H468   1.087       .  S
C461        H469   1.084       .  S
C462        C463   1.344       .  D
C462        H470   1.087       .  S
C463        H471   1.086       .  S
C472        C480   1.493       .  S
C472        C473   1.404       .  A
C472       C1707   1.408       .  A
C473       C1704   1.402       .  A
C473        H482   1.083       .  S
C474        C475   1.408       .  A
C474       C1703   1.402       .  A
C474        H483   1.082       .  S
C475        C478   1.491       .  S
C475        C476   1.405       .  A
C476        C477   1.400       .  A
C476        H484   1.083       .  S
C477       C1702   1.407   1_455  A
C477        H485   1.082       .  S
C478        C479   1.348       .  D
C478        H486   1.086       .  S
C479        H487   1.084       .  S
C480        C481   1.347       .  D
C480        H488   1.088       .  S
C481        H489   1.086       .  S
C490        C498   1.482       .  S
C490        C491   1.401       .  A
C490        C495   1.408       .  A
C491       C1107   1.395       .  A
C491        H500   1.082       .  S
C492        C493   1.408   1_565  A
C492       C1106   1.395       .  A
C492        H501   1.082       .  S
C493        C496   1.483       .  S
C493       C1109   1.402   1_545  A
C494        C495   1.400       .  A
C494       C1108   1.403       .  A
C494        H502   1.082       .  S
C495        H503   1.083       .  S
C496        C497   1.342       .  D
C496        H504   1.088       .  S
C497        H505   1.087       .  S
C498        C499   1.342       .  D
C498        H506   1.086       .  S
C499        H507   1.084       .  S
C508        C516   1.471       .  S
C508        C509   1.400       .  A
C508        C513   1.404       .  A
C509        C510   1.395       .  A
C509        H518   1.084       .  S
C510        C511   1.406       .  A
C510        H519   1.083       .  S
C511        C514   1.475       .  S
C511        C512   1.401       .  A
C512        C513   1.398       .  A
C512        H520   1.083       .  S
C513        H521   1.083       .  S
C514        C515   1.340       .  D
C514        H522   1.087       .  S
C515        H523   1.087       .  S
C516        C517   1.339       .  D
C516        H524   1.087       .  S
C517        H525   1.086       .  S
C526        C534   1.486       .  S
C526        C527   1.404       .  A
C526        C531   1.408       .  A
C527       C1758   1.398       .  A
C527        H536   1.084       .  S
C528        C529   1.409   1_655  A
C528       C1757   1.396       .  A
C528        H537   1.079       .  S
C529        C532   1.484       .  S
C529       C1760   1.404       .  A
C530        C531   1.397       .  A
C530       C1759   1.403       .  A
C530        H538   1.084       .  S
C531        H539   1.080       .  S
C532        C533   1.346       .  D
C532        H540   1.089       .  S
C533        H541   1.085       .  S
C534        C535   1.345       .  D
C534        H542   1.086       .  S
C535        H543   1.083       .  S
C544        C552   1.486       .  S
C544        C549   1.410       .  A
C544       C1160   1.402       .  A
C545        C546   1.394       .  A
C545       C1159   1.402   1_545  A
C545        H554   1.083       .  S
C546        C547   1.406       .  A
C546        H555   1.083       .  S
C547        C550   1.482       .  S
C547        C548   1.402       .  A
C548       C1164   1.401   1_545  A
C548        H556   1.082       .  S
C549       C1163   1.400       .  A
C549        H557   1.082       .  S
C550        C551   1.343       .  D
C550        H558   1.085       .  S
C551        H559   1.085       .  S
C552        C553   1.345       .  D
C552        H560   1.086       .  S
C553        H561   1.084       .  S
C562        C570   1.491       .  S
C562        C563   1.405       .  A
C562        C567   1.409       .  A
C563        C564   1.399       .  A
C563        H572   1.084       .  S
C564        C565   1.407       .  A
C564        H573   1.081       .  S
C565        C568   1.490       .  S
C565        C566   1.405       .  A
C566        C567   1.401       .  A
C566        H574   1.084       .  S
C567        H575   1.080       .  S
C568        C569   1.349       .  D
C568        H576   1.087       .  S
C569        H577   1.085       .  S
C570        C571   1.348       .  D
C570        H578   1.086       .  S
C571        H579   1.083       .  S
C580        C588   1.494       .  S
C580        C585   1.408       .  A
C580       C1196   1.406       .  A
C581        C582   1.403       .  A
C581       C1195   1.407       .  A
C581        H590   1.082       .  S
C582        C583   1.408       .  A
C582        H591   1.082       .  S
C583        C586   1.490       .  S
C583       C1199   1.403       .  A
C584        C585   1.399   1_565  A
C584       C1198   1.405       .  A
C584        H592   1.083       .  S
C585        H593   1.080       .  S
C586        C587   1.348       .  D
C586        H594   1.085       .  S
C587        H595   1.082       .  S
C588        C589   1.349       .  D
C588        H596   1.086       .  S
C589        H597   1.082       .  S
C598        C606   1.486       .  S
C598        C599   1.404       .  A
C598        C603   1.407       .  A
C599       C1830   1.397       .  A
C599        H608   1.084       .  S
C600        C601   1.407       .  A
C600       C1829   1.399   1_455  A
C600        H609   1.080       .  S
C601        C604   1.489       .  S
C601        C602   1.404       .  A
C602       C1833   1.400   1_455  A
C602        H610   1.084       .  S
C603       C1832   1.399       .  A
C603        H611   1.080       .  S
C604        C605   1.347       .  D
C604        H612   1.087       .  S
C605        H613   1.084       .  S
C606        C607   1.348       .  D
C606        H614   1.088       .  S
C607        H615   1.084       .  S
C616        H617   1.109       .  S
C616        C622   1.532       .  S
C616        C621   1.529       .  S
C616        C620   1.534       .  S
C618        H619   1.112       .  S
C618        C624   1.541       .  S
C618        C623   1.536       .  S
C618        C625   1.538       .  S
C620        C623   1.376       .  D
C620       C1150   1.488       .  S
C621        C624   1.378       .  D
C621       C1166   1.479       .  S
C622        C625   1.373       .  D
C622       C1132   1.476       .  S
C623       C1222   1.482       .  S
C624       C1204   1.486       .  S
C625       C1184   1.486       .  S
C626        H627   1.112       .  S
C626        C632   1.537       .  S
C626        C631   1.537       .  S
C626        C630   1.536       .  S
C628        H629   1.108       .  S
C628        C634   1.538       .  S
C628        C633   1.537       .  S
C628        C635   1.537       .  S
C630        C633   1.375       .  D
C630       C1186   1.486       .  S
C631        C634   1.376       .  D
C631       C1220   1.482       .  S
C632        C635   1.375       .  D
C632       C1202   1.491       .  S
C633       C1078   1.484       .  S
C634       C1094   1.490       .  S
C635       C1114   1.480       .  S
O636        C652   1.272       .  A
O636       Zn642   2.011       .  S
C637        O653   1.272       .  A
C637        O650   1.276       .  A
C637       C1130   1.466       .  S
O638        C651   1.274       .  A
O638       Cd645   2.078       .  S
O639        C657   1.275       .  A
O639       Cd648   2.077       .  S
O640        C654   1.274       .  A
O640       Cd644   2.073       .  S
O641        C652   1.277       .  A
O641       Cd644   2.076       .  S
Zn642       O653   2.001       .  S
Zn642       O655   2.003       .  S
Zn642       O647   1.929       .  S
O643        C654   1.276       .  A
O643       Cd648   2.070       .  S
Cd644       O646   2.073       .  S
Cd644       O647   1.997       .  S
Cd645       O649   2.063       .  S
Cd645       O658   2.066       .  S
Cd645       O647   1.994       .  S
O646        C656   1.276       .  A
O647       Cd648   1.997       .  S
Cd648       O650   2.074       .  S
O649        C656   1.273       .  A
C651        O655   1.273       .  A
C651       C1148   1.478       .  S
C652       C1168   1.476       .  S
C654       C1022   1.477       .  S
C656       C1060   1.473       .  S
C657        O658   1.276       .  A
C657       C1042   1.478       .  S
C659        H660   1.106       .  S
C659        C665   1.530   1_655  S
C659       C1278   1.536       .  S
C661        H662   1.112       .  S
C661       C1281   1.539   1_455  S
C661        C668   1.535       .  S
C663       C1274   1.534   1_565  S
C663        C666   1.376       .  D
C663       C1024   1.488       .  S
C664        C667   1.379       .  D
C664       C1058   1.483       .  S
C665        C668   1.377       .  D
C665       C1040   1.477       .  S
C666       C1276   1.543   1_565  S
C666       C1006   1.490       .  S
C667        C968   1.490       .  S
C668        C988   1.483       .  S
C669        H670   1.112       .  S
C669        C675   1.542       .  S
C669        C674   1.535       .  S
C669        C673   1.538       .  S
C671        H672   1.111       .  S
C671        C677   1.539       .  S
C671        C676   1.533       .  S
C671        C678   1.529       .  S
C673        C676   1.373       .  D
C673        C970   1.489       .  S
C674        C677   1.376       .  D
C674        C986   1.483       .  S
C675        C678   1.379       .  D
C675       C1004   1.490       .  S
C676        C950   1.476       .  S
C677        C932   1.486       .  S
C678        C914   1.477       .  S
C679        H680   1.110       .  S
C679        C685   1.533       .  S
C679        C684   1.527       .  S
C679        C683   1.529       .  S
C681        H682   1.111       .  S
C681        C687   1.550       .  S
C681        C686   1.552       .  S
C681        C688   1.553       .  S
C683        C686   1.379       .  D
C683        C826   1.480       .  S
C684        C687   1.373       .  D
C684        C842   1.486       .  S
C685        C688   1.380       .  D
C685        C806   1.494       .  S
C686        C880   1.502       .  S
C687        C862   1.493       .  S
C688        C898   1.492       .  S
C689       H1920   1.111       .  S
C689       C1924   1.555       .  S
C689       C1308   1.544   1_565  S
H690       C1919   1.111       .  S
C691       C1927   1.525       .  S
C691       C1311   1.530   1_565  S
C693       C1304   1.547       .  S
C693        C696   1.372       .  D
C693        C860   1.491       .  S
C694       C1919   1.554       .  S
C694        C697   1.380       .  D
C694        C896   1.496       .  S
C695        C698   1.377       .  D
C695        C878   1.506       .  S
C696       C1306   1.528       .  S
C696        C788   1.484       .  S
C697       C1921   1.525       .  S
C697        C772   1.477       .  S
C698        C752   1.483       .  S
O699        C715   1.271       .  A
O699       Zn705   1.998       .  S
C700        O716   1.273       .  A
C700        O713   1.273       .  A
C700        C790   1.475       .  S
O701        C714   1.272       .  A
O701       Cd708   2.064       .  S
O702        C720   1.276       .  A
O702       Cd711   2.078       .  S
O703        C717   1.279       .  A
O703       Cd707   2.092       .  S
O704        C715   1.278       .  A
O704       Cd707   2.090       .  S
Zn705       O716   2.011       .  S
Zn705       O718   2.013       .  S
Zn705       O710   1.941       .  S
O706        C717   1.274       .  A
O706       Cd711   2.062       .  S
Cd707       O709   2.085       .  S
Cd707       O710   2.011       .  S
Cd708       O712   2.063       .  S
Cd708       O721   2.059       .  S
Cd708       O710   1.995       .  S
O709        C719   1.276       .  A
O710       Cd711   1.999       .  S
Cd711       O713   2.071       .  S
O712        C719   1.275       .  A
C714        O718   1.274       .  A
C714        C754   1.474       .  S
C715        C770   1.475       .  S
C717       C1096   1.477       .  S
C719       C1076   1.480       .  S
C720        O721   1.272       .  A
C720       C1112   1.473       .  S
O722        C738   1.275       .  A
O722      Zn1958   2.008       .  S
C723        O739   1.272       .  A
C723        O736   1.274       .  A
C723        C952   1.472       .  S
O724        C737   1.278       .  A
O724       Cd731   2.079   1_556  S
O725        C743   1.271       .  A
O725      Cd1964   2.055       .  S
O726        C740   1.277       .  A
O726       Cd730   2.084       .  S
O727        C738   1.276   1_554  A
O727       Cd730   2.085       .  S
Zn728      O1952   2.006       .  S
Zn728      O1354   2.020       .  S
Zn728       O733   1.937   1_556  S
O729        C740   1.271       .  A
Cd730      O1962   2.079   1_455  S
Cd730      O1963   2.003       .  S
Cd731       O744   2.088       .  S
O732        C742   1.277       .  A
O732      Cd1960   2.077       .  S
O733      Cd1960   2.002       .  S
O733      Cd1349   1.990       .  S
Cd734      O1955   2.065   1_455  S
Cd734       O736   2.066   1_554  S
Cd734      O1348   1.989       .  S
O735        C742   1.275       .  A
C737        O741   1.272       .  A
C737        C916   1.472       .  S
C738        C934   1.480       .  S
O739      Zn1343   2.017   1_565  S
C740        C824   1.471       .  S
C742        C844   1.479       .  S
C743        O744   1.277       .  A
C743        C808   1.475       .  S
C745        C753   1.482       .  S
C745        C746   1.402       .  A
C745        C750   1.407       .  A
C746        C747   1.397       .  A
C746        H755   1.085       .  S
C747        C748   1.407       .  A
C747        H756   1.081       .  S
C748        C751   1.482       .  S
C748        C749   1.403       .  A
C749        C750   1.397       .  A
C749        H757   1.084       .  S
C750        H758   1.082       .  S
C751        C752   1.344       .  D
C751        H759   1.086       .  S
C752        H760   1.084       .  S
C753        C754   1.344       .  D
C753        H761   1.088       .  S
C754        H762   1.086       .  S
C763        C771   1.484       .  S
C763        C764   1.401       .  A
C763        C768   1.408       .  A
C764        C765   1.399       .  A
C764        H773   1.083       .  S
C765        C766   1.411       .  A
C765        H774   1.080       .  S
C766        C769   1.488       .  S
C766        C767   1.401       .  A
C767        C768   1.396       .  A
C767        H775   1.083       .  S
C768        H776   1.082       .  S
C769        C770   1.343       .  D
C769        H777   1.087       .  S
C770        H778   1.085       .  S
C771        C772   1.341       .  D
C771        H779   1.087       .  S
C772        H780   1.084       .  S
C781        C789   1.487       .  S
C781        C782   1.404       .  A
C781        C786   1.407       .  A
C782        C783   1.397       .  A
C782        H791   1.084       .  S
C783        C784   1.403       .  A
C783        H792   1.083       .  S
C784        C787   1.487       .  S
C784        C785   1.408       .  A
C785        C786   1.397       .  A
C785        H793   1.081       .  S
C786        H794   1.080       .  S
C787        C788   1.346       .  D
C787       H2025   1.085       .  S
C788        H796   1.082       .  S
C789        C790   1.348       .  D
C789        H797   1.087       .  S
C790        H798   1.084       .  S
H795       C2017   1.085       .  S
C799        C807   1.487       .  S
C799        C800   1.403       .  A
C799        C804   1.407       .  A
C800        C801   1.399       .  A
C800        H809   1.083       .  S
C801        C802   1.408       .  A
C801        H810   1.081       .  S
C802        C805   1.488       .  S
C802        C803   1.404       .  A
C803        C804   1.398       .  A
C803        H811   1.083       .  S
C804        H812   1.082       .  S
C805        C806   1.348       .  D
C805        H813   1.085       .  S
C806        H814   1.078       .  S
C807        C808   1.344       .  D
C807        H815   1.087       .  S
C808        H816   1.085       .  S
C817        C825   1.482       .  S
C817        C818   1.401       .  A
C817        C822   1.409       .  A
C818        C819   1.396       .  A
C818        H827   1.083       .  S
C819        C820   1.408       .  A
C819        H828   1.082       .  S
C820        C823   1.483       .  S
C820        C821   1.401       .  A
C821        C822   1.397       .  A
C821        H829   1.082       .  S
C822        H830   1.083       .  S
C823        C824   1.342       .  D
C823        H831   1.087       .  S
C824        H832   1.086       .  S
C825        C826   1.342       .  D
C825        H833   1.086       .  S
C826        H834   1.085       .  S
C835        C843   1.488       .  S
C835        C836   1.404       .  A
C835        C840   1.408       .  A
C836        C837   1.399       .  A
C836        H845   1.083       .  S
C837        C838   1.406       .  A
C837        H846   1.083       .  S
C838        C841   1.484       .  S
C838        C839   1.402       .  A
C839        C840   1.399       .  A
C839        H847   1.083       .  S
C840        H848   1.081       .  S
C841        C842   1.345       .  D
C841        H849   1.086       .  S
C842        H850   1.085       .  S
C843        C844   1.347       .  D
C843        H851   1.087       .  S
C844        H852   1.085       .  S
C853        C861   1.503       .  S
C853        C854   1.404       .  A
C853        C858   1.413       .  A
C854        C855   1.403       .  A
C854        H863   1.082       .  S
C855        C856   1.411       .  A
C855        H864   1.082       .  S
C856        C859   1.500       .  S
C856        C857   1.404       .  A
C857        C858   1.404       .  A
C857        H865   1.082       .  S
C858        H866   1.082       .  S
C859        C860   1.347       .  D
C859        H867   1.086       .  S
C860        H868   1.084       .  S
C861        C862   1.346       .  D
C861        H869   1.086       .  S
C862        H870   1.083       .  S
C871        C879   1.504       .  S
C871        C872   1.410       .  A
C871        C876   1.407       .  A
C872        C873   1.407       .  A
C872        H881   1.084       .  S
C873        C874   1.408       .  A
C873        H882   1.080       .  S
C874        C877   1.502       .  S
C874        C875   1.409       .  A
C875        C876   1.404       .  A
C875        H883   1.083       .  S
C876        H884   1.080       .  S
C877        C878   1.358       .  D
C877        H885   1.086       .  S
C878        H886   1.083       .  S
C879        C880   1.357       .  D
C879        H887   1.087       .  S
C880        H888   1.083       .  S
C889        C897   1.497       .  S
C889        C890   1.407       .  A
C889        C894   1.409       .  A
C890        C891   1.401       .  A
C890        H899   1.083       .  S
C891        C892   1.407       .  A
C891        H900   1.081       .  S
C892        C895   1.495       .  S
C892        C893   1.405       .  A
C893        C894   1.403       .  A
C893        H901   1.083       .  S
C894        H902   1.080       .  S
C895        C896   1.351       .  D
C895        H903   1.086       .  S
C896        H904   1.085       .  S
C897        C898   1.350       .  D
C897        H905   1.087       .  S
C898        H906   1.082       .  S
C907        C915   1.482       .  S
C907        C908   1.400       .  A
C907        C912   1.410       .  A
C908        C909   1.394       .  A
C908        H917   1.083       .  S
C909        C910   1.406       .  A
C909        H918   1.083       .  S
C910        C913   1.479       .  S
C910        C911   1.401       .  A
C911        C912   1.400       .  A
C911        H919   1.083       .  S
C912        H920   1.082       .  S
C913        C914   1.342       .  D
C913        H921   1.085       .  S
C914        H922   1.085       .  S
C915        C916   1.342       .  D
C915        H923   1.087       .  S
C916        H924   1.085       .  S
C925        C933   1.489       .  S
C925        C926   1.403       .  A
C925        C930   1.409       .  A
C926        C927   1.396       .  A
C926        H935   1.084       .  S
C927        C928   1.407       .  A
C927        H936   1.081       .  S
C928        C931   1.490       .  S
C928        C929   1.404       .  A
C929        C930   1.402       .  A
C929        H937   1.084       .  S
C930        H938   1.080       .  S
C931        C932   1.346       .  D
C931        H939   1.087       .  S
C932        H940   1.084       .  S
C933        C934   1.348       .  D
C933        H941   1.088       .  S
C934        H942   1.085       .  S
C943        C951   1.478       .  S
C943        C944   1.402       .  A
C943        C948   1.406       .  A
C944        C945   1.397       .  A
C944        H953   1.083       .  S
C945        C946   1.404       .  A
C945        H954   1.083       .  S
C946        C949   1.476       .  S
C946        C947   1.401       .  A
C947        C948   1.399       .  A
C947        H955   1.083       .  S
C948        H956   1.083       .  S
C949        C950   1.339       .  D
C949        H957   1.087       .  S
C950        H958   1.087       .  S
C951        C952   1.342       .  D
C951        H959   1.088       .  S
C952        H960   1.087       .  S
C961        C969   1.490       .  S
C961        C962   1.404       .  A
C961        C966   1.408       .  A
C962        C963   1.400       .  A
C962        H971   1.084       .  S
C963        C964   1.409       .  A
C963        H972   1.080       .  S
C964        C967   1.491       .  S
C964        C965   1.404       .  A
C965        C966   1.399       .  A
C965        H973   1.083       .  S
C966        H974   1.081       .  S
C967        C968   1.347       .  D
C967        H975   1.085       .  S
C968        H976   1.082       .  S
C969        C970   1.348       .  D
C969        H977   1.086       .  S
C970        H978   1.084       .  S
C979        C987   1.483       .  S
C979        C980   1.401       .  A
C979        C984   1.407       .  A
C980        C981   1.397       .  A
C980        H989   1.086       .  S
C981        C982   1.408       .  A
C981        H990   1.079       .  S
C982        C985   1.486       .  S
C982        C983   1.404       .  A
C983        C984   1.398       .  A
C983        H991   1.084       .  S
C984        H992   1.081       .  S
C985        C986   1.346       .  D
C985        H993   1.086       .  S
C986        H994   1.083       .  S
C987        C988   1.342       .  D
C987        H995   1.086       .  S
C988        H996   1.085       .  S
C997       C1005   1.494       .  S
C997        C998   1.406       .  A
C997       C1002   1.409       .  A
C998        C999   1.401       .  A
C998       H1007   1.083       .  S
C999       C1000   1.407       .  A
C999       H1008   1.082       .  S
C1000      C1003   1.492       .  S
C1000      C1001   1.404       .  A
C1001      C1002   1.401       .  A
C1001      H1009   1.082       .  S
C1002      H1010   1.081       .  S
C1003      C1004   1.348       .  D
C1003      H1011   1.086       .  S
C1004      H1012   1.084       .  S
C1005      C1006   1.348       .  D
C1005      H1013   1.087       .  S
C1006      H1014   1.083       .  S
C1015      C1023   1.484       .  S
C1015      C1016   1.403       .  A
C1015      C1020   1.406       .  A
C1016      C1017   1.400       .  A
C1016      H1025   1.083   1_565  S
C1017      C1018   1.408       .  A
C1017      H1026   1.081       .  S
C1018      C1021   1.486       .  S
C1018      C1019   1.403       .  A
C1019      C1020   1.395       .  A
C1019      H1027   1.084       .  S
C1020      H1028   1.082       .  S
C1021      C1022   1.346       .  D
C1021      H1029   1.088       .  S
C1022      H1030   1.085       .  S
C1023      C1024   1.345       .  D
C1023      H1031   1.086   1_565  S
C1024      H1032   1.079       .  S
C1033      C1041   1.490       .  S
C1033      C1034   1.404       .  A
C1033      C1038   1.410       .  A
C1034      C1035   1.396       .  A
C1034      H1043   1.083       .  S
C1035      C1036   1.406       .  A
C1035      H1044   1.083       .  S
C1036      C1039   1.483       .  S
C1036      C1037   1.401       .  A
C1037      C1038   1.400       .  A
C1037      H1045   1.082       .  S
C1038      H1046   1.079       .  S
C1039      C1040   1.342       .  D
C1039      H1047   1.086       .  S
C1040      H1048   1.085       .  S
C1041      C1042   1.348       .  D
C1041      H1049   1.087       .  S
C1042      H1050   1.082       .  S
C1051      C1059   1.480       .  S
C1051      C1052   1.403       .  A
C1051      C1056   1.408       .  A
C1052      C1053   1.398       .  A
C1052      H1061   1.082       .  S
C1053      C1054   1.402       .  A
C1053      H1062   1.084   1_565  S
C1054      C1057   1.470       .  S
C1054      C1055   1.400       .  A
C1055      C1056   1.398       .  A
C1055      H1063   1.082       .  S
C1056      H1064   1.083       .  S
C1057      C1058   1.341       .  D
C1057      H1065   1.085       .  S
C1058      H1066   1.087       .  S
C1059      C1060   1.343       .  D
C1059      H1067   1.086       .  S
C1060      H1068   1.086       .  S
C1069      C1077   1.485       .  S
C1069      C1070   1.403       .  A
C1069      C1074   1.406       .  A
C1070      C1071   1.399       .  A
C1070      H1079   1.085       .  S
C1071      C1072   1.408       .  A
C1071      H1080   1.079       .  S
C1072      C1075   1.489       .  S
C1072      C1073   1.405       .  A
C1073      C1074   1.398       .  A
C1073      H1081   1.085       .  S
C1074      H1082   1.081       .  S
C1075      C1076   1.349       .  D
C1075      H1083   1.088       .  S
C1076      H1084   1.085       .  S
C1077      C1078   1.344       .  D
C1077      H1085   1.088       .  S
C1078      H1086   1.085       .  S
C1087      C1095   1.490       .  S
C1087      C1088   1.404       .  A
C1087      C2322   1.407       .  A
C1088      C2319   1.402       .  A
C1088      H1097   1.083       .  S
C1089      C2318   1.402       .  A
C1089      C1090   1.409       .  A
C1089      H1098   1.082       .  S
C1090      C1093   1.488       .  S
C1090      C1091   1.403       .  A
C1091      C1092   1.397       .  A
C1091      H1099   1.082       .  S
C1092      C2317   1.407   1_455  A
C1092      H1100   1.083       .  S
C1093      C1094   1.345       .  D
C1093      H1101   1.085       .  S
C1094      H1102   1.084       .  S
C1095      C1096   1.346       .  D
C1095      H1103   1.086       .  S
C1096      H1104   1.085       .  S
C1105      C1113   1.480       .  S
C1105      C1106   1.401       .  A
C1105      C1110   1.408       .  A
C1106      H1115   1.084       .  S
C1107      C1108   1.407       .  A
C1107      H1116   1.083       .  S
C1108      C1111   1.485       .  S
C1109      C1110   1.398       .  A
C1109      H1117   1.084   1_565  S
C1110      H1118   1.081       .  S
C1111      C1112   1.345       .  D
C1111      H1119   1.086       .  S
C1112      H1120   1.085       .  S
C1113      C1114   1.341       .  D
C1113      H1121   1.088       .  S
C1114      H1122   1.085       .  S
C1123      C1131   1.472       .  S
C1123      C1124   1.400       .  A
C1123      C1128   1.406       .  A
C1124      C1125   1.393       .  A
C1124      H1133   1.084       .  S
C1125      C1126   1.405       .  A
C1125      H1134   1.083       .  S
C1126      C1129   1.476       .  S
C1126      C1127   1.402       .  A
C1127      C1128   1.398       .  A
C1127      H1135   1.083       .  S
C1128      H1136   1.083       .  S
C1129      C1130   1.340       .  D
C1129      H1137   1.086       .  S
C1130      H1138   1.086       .  S
C1131      C1132   1.339       .  D
C1131      H1139   1.088       .  S
C1132      H1140   1.087       .  S
C1141      C1149   1.490       .  S
C1141      C1142   1.407       .  A
C1141      C1146   1.409       .  A
C1142      C2373   1.399       .  A
C1142      H1151   1.082       .  S
C1143      C2372   1.399       .  A
C1143      C1144   1.406   1_655  A
C1143      H1152   1.082       .  S
C1144      C1147   1.485       .  S
C1144      C2375   1.403       .  A
C1145      C2374   1.401       .  A
C1145      C1146   1.396       .  A
C1145      H1153   1.082       .  S
C1146      H1154   1.081       .  S
C1147      C1148   1.348       .  D
C1147      H1155   1.086       .  S
C1148      H1156   1.084       .  S
C1149      C1150   1.348       .  D
C1149      H1157   1.085       .  S
C1150      H1158   1.081       .  S
C1159      C1167   1.486       .  S
C1159      C1164   1.410       .  A
C1160      C1161   1.395       .  A
C1160      H1169   1.083       .  S
C1161      C1162   1.405       .  A
C1161      H1170   1.083       .  S
C1162      C1165   1.479       .  S
C1162      C1163   1.401       .  A
C1163      H1171   1.083       .  S
C1164      H1172   1.082       .  S
C1165      C1166   1.342       .  D
C1165      H1173   1.085       .  S
C1166      H1174   1.086       .  S
C1167      C1168   1.344       .  D
C1167      H1175   1.087       .  S
C1168      H1176   1.084       .  S
C1177      C1185   1.487       .  S
C1177      C1178   1.404       .  A
C1177      C1182   1.408       .  A
C1178      C1179   1.399       .  A
C1178      H1187   1.083       .  S
C1179      C1180   1.407       .  A
C1179      H1188   1.081       .  S
C1180      C1183   1.486       .  S
C1180      C1181   1.404       .  A
C1181      C1182   1.399       .  A
C1181      H1189   1.083       .  S
C1182      H1190   1.080       .  S
C1183      C1184   1.347       .  D
C1183      H1191   1.086       .  S
C1184      H1192   1.084       .  S
C1185      C1186   1.347       .  D
C1185      H1193   1.087       .  S
C1186      H1194   1.084       .  S
C1195      C1203   1.493       .  S
C1195      C1200   1.408       .  A
C1196      C1197   1.401   1_545  A
C1196      H1205   1.082       .  S
C1197      C1198   1.408       .  A
C1197      H1206   1.081       .  S
C1198      C1201   1.492       .  S
C1199      C1200   1.396       .  A
C1199      H1207   1.081       .  S
C1200      H1208   1.081       .  S
C1201      C1202   1.349       .  D
C1201      H1209   1.087       .  S
C1202      H1210   1.084       .  S
C1203      C1204   1.349       .  D
C1203      H1211   1.085       .  S
C1204      H1212   1.082       .  S
C1213      C1221   1.485       .  S
C1213      C1214   1.403       .  A
C1213      C1218   1.408       .  A
C1214      C2445   1.396       .  A
C1214      H1223   1.084       .  S
C1215      C2444   1.395   1_455  A
C1215      C1216   1.406       .  A
C1215      H1224   1.081       .  S
C1216      C1219   1.485       .  S
C1216      C1217   1.404       .  A
C1217      C2448   1.399   1_455  A
C1217      H1225   1.084       .  S
C1218      C2447   1.398       .  A
C1218      H1226   1.080       .  S
C1219      C1220   1.346       .  D
C1219      H1227   1.088       .  S
C1220      H1228   1.085       .  S
C1221      C1222   1.345       .  D
C1221      H1229   1.087       .  S
C1222      H1230   1.083       .  S
C1231      H1232   1.110       .  S
C1231      C1237   1.531       .  S
C1231      C1236   1.526       .  S
C1231      C1235   1.531       .  S
C1233      H1234   1.112       .  S
C1233      C1239   1.545       .  S
C1233      C1238   1.540       .  S
C1233      C1240   1.541       .  S
C1235      C1238   1.374       .  D
C1235      C1765   1.480       .  S
C1236      C1239   1.378       .  D
C1236      C1781   1.481       .  S
C1237      C1240   1.376       .  D
C1237      C1747   1.479       .  S
C1238      C1837   1.489       .  S
C1239      C1819   1.487       .  S
C1240      C1799   1.487       .  S
C1241      H1242   1.112       .  S
C1241      C1247   1.535       .  S
C1241      C1246   1.537       .  S
C1241      C1245   1.534       .  S
C1243      H1244   1.109       .  S
C1243      C1249   1.539       .  S
C1243      C1248   1.539       .  S
C1243      C1250   1.538       .  S
C1245      C1248   1.375       .  D
C1245      C1801   1.487       .  S
C1246      C1249   1.376       .  D
C1246      C1835   1.485       .  S
C1247      C1250   1.375       .  D
C1247      C1817   1.487       .  S
C1248      C1693   1.481       .  S
C1249      C1709   1.492       .  S
C1250      C1729   1.482       .  S
O1251      C1267   1.272       .  A
O1251     Zn1257   2.010       .  S
C1252      O1268   1.272       .  A
C1252      O1265   1.276       .  A
C1252      C1745   1.469       .  S
O1253      C1266   1.273       .  A
O1253     Cd1260   2.072       .  S
O1254      C1272   1.275       .  A
O1254     Cd1263   2.085       .  S
O1255      C1269   1.275       .  A
O1255     Cd1259   2.080       .  S
O1256      C1267   1.276       .  A
O1256     Cd1259   2.074       .  S
Zn1257     O1268   2.003       .  S
Zn1257     O1270   2.009       .  S
Zn1257     O1262   1.934       .  S
O1258      C1269   1.277       .  A
O1258     Cd1263   2.070       .  S
Cd1259     O1261   2.073       .  S
Cd1259     O1262   2.002       .  S
Cd1260     O1264   2.055       .  S
Cd1260     O1273   2.063       .  S
Cd1260     O1262   1.994       .  S
O1261      C1271   1.276       .  A
O1262     Cd1263   2.000       .  S
Cd1263     O1265   2.077       .  S
O1264      C1271   1.272       .  A
C1266      O1270   1.274       .  A
C1266      C1763   1.477       .  S
C1267      C1783   1.475       .  S
C1269      C1637   1.479       .  S
C1271      C1675   1.469       .  S
C1272      O1273   1.275       .  A
C1272      C1657   1.481       .  S
C1274      H1275   1.111   1_545  S
C1274      C1280   1.531       .  S
C1274      C1894   1.533   1_545  S
C1276      H1277   1.112       .  S
C1276      C1897   1.538   1_545  S
C1276      C1283   1.539       .  S
C1278      C1281   1.377       .  D
C1278      C1639   1.489       .  S
C1279      C1889   1.543       .  S
C1279      C1282   1.377       .  D
C1279      C1673   1.488       .  S
C1280      C1283   1.379       .  D
C1280      C1655   1.482       .  S
C1281      C1621   1.485       .  S
C1282      C1891   1.532       .  S
C1282      C1583   1.486       .  S
C1283      C1603   1.485       .  S
C1284      H1285   1.112       .  S
C1284      C1290   1.545       .  S
C1284      C1289   1.532       .  S
C1284      C1288   1.539       .  S
C1286      H1287   1.111       .  S
C1286      C1292   1.539       .  S
C1286      C1291   1.530       .  S
C1286      C1293   1.525       .  S
C1288      C1291   1.374       .  D
C1288      C1585   1.485       .  S
C1289      C1292   1.375       .  D
C1289      C1601   1.485       .  S
C1290      C1293   1.378       .  D
C1290      C1619   1.488       .  S
C1291      C1565   1.478       .  S
C1292      C1547   1.482       .  S
C1293      C1529   1.476       .  S
C1294      H1295   1.112       .  S
C1294      C1300   1.531       .  S
C1294      C1299   1.526       .  S
C1294      C1298   1.526       .  S
C1296      H1297   1.111       .  S
C1296      C1302   1.551       .  S
C1296      C1301   1.551       .  S
C1296      C1303   1.553       .  S
C1298      C1301   1.378       .  D
C1298      C1441   1.477       .  S
C1299      C1302   1.374       .  D
C1299      C1457   1.490       .  S
C1300      C1303   1.378       .  D
C1300      C1421   1.487       .  S
C1301      C1495   1.502       .  S
C1302      C1477   1.488       .  S
C1303      C1513   1.493       .  S
C1304      C1925   1.555       .  S
C1306      H1922   1.111       .  S
C1306      C1928   1.530       .  S
H1307      C1921   1.110   1_545  S
C1308      C1311   1.372       .  D
C1308      C1475   1.485       .  S
C1309      C1312   1.382       .  D
C1309      C1511   1.498       .  S
C1310      C1919   1.554   1_545  S
C1310      C1313   1.378       .  D
C1310      C1493   1.502       .  S
C1311      C1403   1.487       .  S
C1312      C1387   1.482       .  S
C1313      C1921   1.532   1_545  S
C1313      C1367   1.487       .  S
O1314      C1330   1.272       .  A
O1314     Zn1320   2.001       .  S
C1315      O1331   1.274       .  A
C1315      O1328   1.275       .  A
C1315      C1405   1.477       .  S
O1316      C1329   1.272       .  A
O1316     Cd1323   2.064       .  S
O1317      C1335   1.277       .  A
O1317     Cd1326   2.086       .  S
O1318      C1332   1.279       .  A
O1318     Cd1322   2.094       .  S
O1319      C1330   1.279       .  A
O1319     Cd1322   2.093       .  S
Zn1320     O1331   2.014       .  S
Zn1320     O1333   2.022       .  S
Zn1320     O1325   1.941       .  S
O1321      C1332   1.276       .  A
O1321     Cd1326   2.075       .  S
Cd1322     O1324   2.079       .  S
Cd1322     O1325   2.011       .  S
Cd1323     O1327   2.058       .  S
Cd1323     O1336   2.052       .  S
Cd1323     O1325   1.994       .  S
O1324      C1334   1.275       .  A
O1325     Cd1326   2.002       .  S
Cd1326     O1328   2.077       .  S
O1327      C1334   1.274       .  A
C1329      O1333   1.275       .  A
C1329      C1369   1.476       .  S
C1330      C1385   1.477       .  S
C1332      C1711   1.482       .  S
C1334      C1691   1.476       .  S
C1335      O1336   1.272       .  A
C1335      C1727   1.472       .  S
O1337      C1353   1.274       .  A
C1338      O1354   1.272       .  A
C1338      O1351   1.273       .  A
C1338      C1567   1.471       .  S
O1339      C1352   1.278       .  A
O1339     Cd1346   2.077   1_556  S
O1340      C1358   1.270       .  A
O1341      C1355   1.278       .  A
O1341     Cd1345   2.077       .  S
O1342      C1353   1.275   1_554  A
O1342     Cd1345   2.082       .  S
Zn1343     O1971   1.998   1_445  S
Zn1343     O1348   1.935   1_546  S
O1344      C1355   1.273       .  A
O1344     Cd1964   2.054   1_545  S
Cd1346     O1965   2.081       .  S
Cd1346     O1359   2.085       .  S
Cd1346     O1963   2.003   1_655  S
O1347      C1357   1.277       .  A
O1348     Cd1961   1.995   1_455  S
Cd1349     O1959   2.058       .  S
Cd1349     O1351   2.063   1_554  S
O1350      C1357   1.275   1_565  A
O1350     Cd1961   2.073       .  S
C1352      O1356   1.274       .  A
C1352      C1531   1.476       .  S
C1353      C1549   1.478       .  S
C1355      C1439   1.470       .  S
O1356     Zn1958   2.014   1_655  S
C1357      C1459   1.478       .  S
C1358      O1359   1.276       .  A
C1358      C1423   1.472       .  S
C1360      C1368   1.488       .  S
C1360      C1361   1.405       .  A
C1360      C1365   1.409       .  A
C1361      C1362   1.397       .  A
C1361      H1370   1.084       .  S
C1362      C1363   1.404       .  A
C1362      H1371   1.082       .  S
C1363      C1366   1.479       .  S
C1363      C1364   1.402       .  A
C1364      C1365   1.397       .  A
C1364      H1372   1.084       .  S
C1365      H1373   1.080       .  S
C1366      C1367   1.345       .  D
C1366      H1374   1.085       .  S
C1367      H1375   1.085       .  S
C1368      C1369   1.346       .  D
C1368      H1376   1.088       .  S
C1369      H1377   1.084       .  S
C1378      C1386   1.490       .  S
C1378      C1379   1.402       .  A
C1378      C1383   1.409       .  A
C1379      C1380   1.401       .  A
C1379      H1388   1.085       .  S
C1380      C1381   1.411       .  A
C1380      H1389   1.080       .  S
C1381      C1384   1.491       .  S
C1381      C1382   1.402       .  A
C1382      C1383   1.398       .  A
C1382      H1390   1.084       .  S
C1383      H1391   1.080       .  S
C1384      C1385   1.344       .  D
C1384      H1392   1.087       .  S
C1385      H1393   1.085       .  S
C1386      C1387   1.344       .  D
C1386      H1394   1.088       .  S
C1387      H1395   1.085       .  S
C1396      C1404   1.489       .  S
C1396      C1397   1.404       .  A
C1396      C1401   1.406       .  A
C1397      C1398   1.399       .  A
C1397      H1406   1.083       .  S
C1398      C1399   1.405       .  A
C1398      H1407   1.084       .  S
C1399      C1402   1.492       .  S
C1399      C1400   1.410       .  A
C1400      C1401   1.397       .  A
C1400      H1408   1.079       .  S
C1401      H1409   1.081       .  S
C1402      C1403   1.348       .  D
C1403      H1411   1.081       .  S
C1404      C1405   1.349       .  D
C1404      H1412   1.087       .  S
C1405      H1413   1.084       .  S
C1414      C1422   1.486       .  S
C1414      C1415   1.403       .  A
C1414      C1419   1.408       .  A
C1415      C1416   1.399       .  A
C1415      H1424   1.082       .  S
C1416      C1417   1.407       .  A
C1416      H1425   1.083       .  S
C1417      C1420   1.480       .  S
C1417      C1418   1.401       .  A
C1418      C1419   1.395       .  A
C1418      H1426   1.082       .  S
C1419      H1427   1.082       .  S
C1420      C1421   1.344       .  D
C1420      H1428   1.085       .  S
C1421      H1429   1.079       .  S
C1422      C1423   1.343       .  D
C1422      H1430   1.086       .  S
C1423      H1431   1.084       .  S
C1432      C1440   1.479       .  S
C1432      C1433   1.400       .  A
C1432      C1437   1.407       .  A
C1433      C1434   1.397       .  A
C1433      H1442   1.083       .  S
C1434      C1435   1.409       .  A
C1434      H1443   1.082       .  S
C1435      C1438   1.482       .  S
C1435      C1436   1.401       .  A
C1436      C1437   1.395       .  A
C1436      H1444   1.082       .  S
C1437      H1445   1.083       .  S
C1438      C1439   1.343       .  D
C1438      H1446   1.086       .  S
C1439      H1447   1.084       .  S
C1440      C1441   1.341       .  D
C1440      H1448   1.087       .  S
C1441      H1449   1.086       .  S
C1450      C1458   1.488       .  S
C1450      C1451   1.404       .  A
C1450      C1455   1.407       .  A
C1451      C1452   1.401       .  A
C1451      H1460   1.084       .  S
C1452      C1453   1.409       .  A
C1452      H1461   1.081       .  S
C1453      C1456   1.489       .  S
C1453      C1454   1.403       .  A
C1454      C1455   1.398       .  A
C1454      H1462   1.084       .  S
C1455      H1463   1.081       .  S
C1456      C1457   1.346       .  D
C1456      H1464   1.087       .  S
C1457      H1465   1.085       .  S
C1458      C1459   1.346       .  D
C1458      H1466   1.087       .  S
C1459      H1467   1.086       .  S
C1468      C1476   1.493       .  S
C1468      C1469   1.402       .  A
C1468      C1473   1.409       .  A
C1469      C1470   1.401       .  A
C1469      H1478   1.084       .  S
C1470      C1471   1.411       .  A
C1470      H1479   1.080       .  S
C1471      C1474   1.498       .  S
C1471      C1472   1.406       .  A
C1472      C1473   1.403       .  A
C1472      H1480   1.084       .  S
C1473      H1481   1.082       .  S
C1474      C1475   1.346       .  D
C1474      H1482   1.087       .  S
C1475      H1483   1.083       .  S
C1476      C1477   1.343       .  D
C1476      H1484   1.087       .  S
C1477      H1485   1.086       .  S
C1486      C1494   1.502       .  S
C1486      C1487   1.409       .  A
C1486      C1491   1.408       .  A
C1487      C1488   1.405       .  A
C1487      H1496   1.083       .  S
C1488      C1489   1.407       .  A
C1488      H1497   1.081       .  S
C1489      C1492   1.500       .  S
C1489      C1490   1.409       .  A
C1490      C1491   1.405       .  A
C1490      H1498   1.083       .  S
C1491      H1499   1.080       .  S
C1492      C1493   1.356       .  D
C1492      H1500   1.087       .  S
C1493      H1501   1.083       .  S
C1494      C1495   1.356       .  D
C1494      H1502   1.085       .  S
C1495      H1503   1.082       .  S
C1504      C1512   1.496       .  S
C1504      C1505   1.406       .  A
C1504      C1509   1.408       .  A
C1505      C1506   1.401       .  A
C1505      H1514   1.083       .  S
C1506      C1507   1.408       .  A
C1506      H1515   1.079       .  S
C1507      C1510   1.500       .  S
C1507      C1508   1.408       .  A
C1508      C1509   1.405       .  A
C1508      H1516   1.083       .  S
C1509      H1517   1.080       .  S
C1510      C1511   1.353       .  D
C1510      H1518   1.085       .  S
C1511      H1519   1.083       .  S
C1512      C1513   1.350       .  D
C1512      H1520   1.086       .  S
C1513      H1521   1.083       .  S
C1522      C1530   1.483       .  S
C1522      C1523   1.401       .  A
C1522      C1527   1.409       .  A
C1523      C1524   1.394       .  A
C1523      H1532   1.083       .  S
C1524      C1525   1.406       .  A
C1524      H1533   1.083       .  S
C1525      C1528   1.480       .  S
C1525      C1526   1.402       .  A
C1526      C1527   1.400       .  A
C1526      H1534   1.083       .  S
C1527      H1535   1.082       .  S
C1528      C1529   1.342       .  D
C1528      H1536   1.086       .  S
C1529      H1537   1.085       .  S
C1530      C1531   1.344       .  D
C1530      H1538   1.086       .  S
C1531      H1539   1.085       .  S
C1540      C1548   1.486       .  S
C1540      C1541   1.403       .  A
C1540      C1545   1.407       .  A
C1541      C1542   1.396       .  A
C1541      H1550   1.083       .  S
C1542      C1543   1.408       .  A
C1542      H1551   1.080       .  S
C1543      C1546   1.488       .  S
C1543      C1544   1.404       .  A
C1544      C1545   1.398       .  A
C1544      H1552   1.083       .  S
C1545      H1553   1.081       .  S
C1546      C1547   1.344       .  D
C1546      H1554   1.086       .  S
C1547      H1555   1.081       .  S
C1548      C1549   1.348       .  D
C1548      H1556   1.086       .  S
C1549      H1557   1.082       .  S
C1558      C1566   1.476       .  S
C1558      C1559   1.402       .  A
C1558      C1563   1.405       .  A
C1559      C1560   1.397       .  A
C1559      H1568   1.083       .  S
C1560      C1561   1.405       .  A
C1560      H1569   1.083       .  S
C1561      C1564   1.477       .  S
C1561      C1562   1.403       .  A
C1562      C1563   1.399       .  A
C1562      H1570   1.083       .  S
C1563      H1571   1.083       .  S
C1564      C1565   1.342       .  D
C1564      H1572   1.087       .  S
C1565      H1573   1.086       .  S
C1566      C1567   1.342       .  D
C1566      H1574   1.087       .  S
C1567      H1575   1.087       .  S
C1576      C1584   1.484       .  S
C1576      C1577   1.402       .  A
C1576      C1581   1.408       .  A
C1577      C1578   1.397       .  A
C1577      H1586   1.084       .  S
C1578      C1579   1.409       .  A
C1578      H1587   1.080       .  S
C1579      C1582   1.487       .  S
C1579      C1580   1.403       .  A
C1580      C1581   1.398       .  A
C1580      H1588   1.084       .  S
C1581      H1589   1.081       .  S
C1582      C1583   1.345       .  D
C1582      H1590   1.087       .  S
C1583      H1591   1.084       .  S
C1584      C1585   1.344       .  D
C1584      H1592   1.086       .  S
C1585      H1593   1.085       .  S
C1594      C1602   1.488       .  S
C1594      C1595   1.403       .  A
C1594      C1599   1.409       .  A
C1595      C1596   1.398       .  A
C1595      H1604   1.083       .  S
C1596      C1597   1.407       .  A
C1596      H1605   1.082       .  S
C1597      C1600   1.485       .  S
C1597      C1598   1.402       .  A
C1598      C1599   1.398       .  A
C1598      H1606   1.081       .  S
C1599      H1607   1.083       .  S
C1600      C1601   1.345       .  D
C1600      H1608   1.086       .  S
C1601      H1609   1.084       .  S
C1602      C1603   1.345       .  D
C1602      H1610   1.085       .  S
C1603      H1611   1.083       .  S
C1612      C1620   1.493       .  S
C1612      C1613   1.404       .  A
C1612      C1617   1.411       .  A
C1613      C1614   1.399       .  A
C1613      H1622   1.084       .  S
C1614      C1615   1.407       .  A
C1614      H1623   1.081       .  S
C1615      C1618   1.489       .  S
C1615      C1616   1.403       .  A
C1616      C1617   1.400       .  A
C1616      H1624   1.084       .  S
C1617      H1625   1.080       .  S
C1618      C1619   1.347       .  D
C1618      H1626   1.086       .  S
C1619      H1627   1.085       .  S
C1620      C1621   1.345       .  D
C1620      H1628   1.088       .  S
C1621      H1629   1.083       .  S
C1630      C1638   1.486       .  S
C1630      C1631   1.405       .  A
C1630      C1635   1.406       .  A
C1631      C1632   1.401       .  A
C1631      H1640   1.083       .  S
C1632      C1633   1.407       .  A
C1632      H1641   1.081       .  S
C1633      C1636   1.485       .  S
C1633      C1634   1.402       .  A
C1634      C1635   1.395       .  A
C1634      H1642   1.083       .  S
C1635      H1643   1.082       .  S
C1636      C1637   1.346       .  D
C1636      H1644   1.087       .  S
C1637      H1645   1.085       .  S
C1638      C1639   1.347       .  D
C1638      H1646   1.086       .  S
C1639      H1647   1.080       .  S
C1648      C1656   1.489       .  S
C1648      C1649   1.403       .  A
C1648      C1653   1.409       .  A
C1649      C1650   1.395       .  A
C1649      H1658   1.083       .  S
C1650      C1651   1.407       .  A
C1650      H1659   1.082       .  S
C1651      C1654   1.489       .  S
C1651      C1652   1.404       .  A
C1652      C1653   1.403       .  A
C1652      H1660   1.082       .  S
C1653      H1661   1.081       .  S
C1654      C1655   1.345       .  D
C1654      H1662   1.085       .  S
C1655      H1663   1.083       .  S
C1656      C1657   1.348       .  D
C1656      H1664   1.086       .  S
C1657      H1665   1.083       .  S
C1666      C1674   1.479       .  S
C1666      C1667   1.402       .  A
C1666      C1671   1.406       .  A
C1667      C1668   1.398       .  A
C1667      H1676   1.084       .  S
C1668      C1669   1.402       .  A
C1668      H1677   1.083       .  S
C1669      C1672   1.478       .  S
C1669      C1670   1.405       .  A
C1670      C1671   1.394       .  A
C1670      H1678   1.083       .  S
C1671      H1679   1.082       .  S
C1672      C1673   1.344       .  D
C1672      H1680   1.083       .  S
C1673      H1681   1.084       .  S
C1674      C1675   1.342       .  D
C1674      H1682   1.088       .  S
C1675      H1683   1.087       .  S
C1684      C1692   1.484       .  S
C1684      C1685   1.403       .  A
C1684      C1689   1.407       .  A
C1685      C1686   1.398       .  A
C1685      H1694   1.084       .  S
C1686      C1687   1.407       .  A
C1686      H1695   1.081       .  S
C1687      C1690   1.485       .  S
C1687      C1688   1.403       .  A
C1688      C1689   1.396       .  A
C1688      H1696   1.083       .  S
C1689      H1697   1.082       .  S
C1690      C1691   1.347       .  D
C1690      H1698   1.087       .  S
C1691      H1699   1.084       .  S
C1692      C1693   1.344       .  D
C1692      H1700   1.088       .  S
C1693      H1701   1.085       .  S
C1702      C1710   1.492       .  S
C1702      C1703   1.405   1_655  A
C1703      H1712   1.082   1_455  S
C1704      C1705   1.409       .  A
C1704      H1713   1.081       .  S
C1705      C1708   1.494       .  S
C1705      C1706   1.405       .  A
C1706      C1707   1.401       .  A
C1706      H1714   1.083       .  S
C1707      H1715   1.081       .  S
C1708      C1709   1.347       .  D
C1708      H1716   1.087       .  S
C1709      H1717   1.084       .  S
C1710      C1711   1.348       .  D
C1710      H1718   1.086       .  S
C1711      H1719   1.085       .  S
C1720      C1728   1.481       .  S
C1720      C1721   1.401       .  A
C1720      C1725   1.407       .  A
C1721      C2337   1.395       .  A
C1721      H1730   1.083       .  S
C1722      C2336   1.395       .  A
C1722      C1723   1.408   1_565  A
C1722      H1731   1.081       .  S
C1723      C1726   1.484       .  S
C1723      C2339   1.402   1_545  A
C1724      C2338   1.404       .  A
C1724      C1725   1.400       .  A
C1724      H1732   1.082       .  S
C1725      H1733   1.082       .  S
C1726      C1727   1.343       .  D
C1726      H1734   1.088       .  S
C1727      H1735   1.087       .  S
C1728      C1729   1.341       .  D
C1728      H1736   1.087       .  S
C1729      H1737   1.085       .  S
C1738      C1746   1.472       .  S
C1738      C1739   1.399       .  A
C1738      C1743   1.405       .  A
C1739      C1740   1.394       .  A
C1739      H1748   1.084       .  S
C1740      C1741   1.405       .  A
C1740      H1749   1.083       .  S
C1741      C1744   1.477       .  S
C1741      C1742   1.402       .  A
C1742      C1743   1.400       .  A
C1742      H1750   1.083       .  S
C1743      H1751   1.083       .  S
C1744      C1745   1.341       .  D
C1744      H1752   1.087       .  S
C1745      H1753   1.088       .  S
C1746      C1747   1.340       .  D
C1746      H1754   1.087       .  S
C1747      H1755   1.087       .  S
C1756      C1764   1.477       .  S
C1756      C1757   1.401       .  A
C1756      C1761   1.405       .  A
C1757      H1766   1.084       .  S
C1758      C1759   1.407       .  A
C1758      H1767   1.080       .  S
C1759      C1762   1.485       .  S
C1760      C1761   1.395   1_455  A
C1760      H1768   1.084       .  S
C1761      H1769   1.081       .  S
C1762      C1763   1.346       .  D
C1762      H1770   1.088       .  S
C1763      H1771   1.085       .  S
C1764      C1765   1.343       .  D
C1764      H1772   1.086       .  S
C1765      H1773   1.085       .  S
C1774      C1782   1.485       .  S
C1774      C2390   1.402       .  A
C1774      C1779   1.410       .  A
C1775      C2389   1.402   1_545  A
C1775      C1776   1.395       .  A
C1775      H1784   1.083       .  S
C1776      C1777   1.406       .  A
C1776      H1785   1.083       .  S
C1777      C1780   1.485       .  S
C1777      C1778   1.403       .  A
C1778      C2394   1.403   1_545  A
C1778      H1786   1.083       .  S
C1779      C2393   1.400       .  A
C1779      H1787   1.082       .  S
C1780      C1781   1.344       .  D
C1780      H1788   1.085       .  S
C1781      H1789   1.085       .  S
C1782      C1783   1.344       .  D
C1782      H1790   1.087       .  S
C1783      H1791   1.084       .  S
C1792      C1800   1.490       .  S
C1792      C1793   1.405       .  A
C1792      C1797   1.408       .  A
C1793      C1794   1.399       .  A
C1793      H1802   1.084       .  S
C1794      C1795   1.407       .  A
C1794      H1803   1.080       .  S
C1795      C1798   1.488       .  S
C1795      C1796   1.404       .  A
C1796      C1797   1.399       .  A
C1796      H1804   1.084       .  S
C1797      H1805   1.079       .  S
C1798      C1799   1.347       .  D
C1798      H1806   1.087       .  S
C1799      H1807   1.085       .  S
C1800      C1801   1.348       .  D
C1800      H1808   1.086       .  S
C1801      H1809   1.082       .  S
C1810      C1818   1.489       .  S
C1810      C2426   1.405       .  A
C1810      C1815   1.407       .  A
C1811      C2425   1.405       .  A
C1811      C1812   1.400       .  A
C1811      H1820   1.083       .  S
C1812      C1813   1.408       .  A
C1812      H1821   1.081       .  S
C1813      C1816   1.486       .  S
C1813      C2429   1.402       .  A
C1814      C2428   1.404       .  A
C1814      C1815   1.397   1_565  A
C1814      H1822   1.084       .  S
C1815      H1823   1.082       .  S
C1816      C1817   1.346       .  D
C1816      H1824   1.086       .  S
C1817      H1825   1.083       .  S
C1818      C1819   1.348       .  D
C1818      H1826   1.086       .  S
C1819      H1827   1.083       .  S
C1828      C1836   1.488       .  S
C1828      C1829   1.405       .  A
C1828      C1833   1.407       .  A
C1829      H1838   1.085       .  S
C1830      C1831   1.407       .  A
C1830      H1839   1.080       .  S
C1831      C1834   1.487       .  S
C1831      C1832   1.404       .  A
C1832      H1840   1.084       .  S
C1833      H1841   1.079       .  S
C1834      C1835   1.347       .  D
C1834      H1842   1.087       .  S
C1835      H1843   1.084       .  S
C1836      C1837   1.349       .  D
C1836      H1844   1.088       .  S
C1837      H1845   1.084       .  S
C1846      H1847   1.110       .  S
C1846      C1852   1.533       .  S
C1846      C1851   1.528       .  S
C1846      C1850   1.533       .  S
C1848      H1849   1.112       .  S
C1848      C1854   1.539       .  S
C1848      C1853   1.536       .  S
C1848      C1855   1.538       .  S
C1850      C1853   1.375       .  D
C1850      C2380   1.486       .  S
C1851      C1854   1.377       .  D
C1851      C2396   1.478       .  S
C1852      C1855   1.375       .  D
C1852      C2362   1.479       .  S
C1853      C2452   1.483       .  S
C1854      C2434   1.484       .  S
C1855      C2414   1.487       .  S
C1856      H1857   1.112       .  S
C1856      C1862   1.534       .  S
C1856      C1861   1.536       .  S
C1856      C1860   1.536       .  S
C1858      H1859   1.108       .  S
C1858      C1864   1.538       .  S
C1858      C1863   1.538       .  S
C1858      C1865   1.537       .  S
C1860      C1863   1.376       .  D
C1860      C2416   1.488       .  S
C1861      C1864   1.376       .  D
C1861      C2450   1.483       .  S
C1862      C1865   1.374       .  D
C1862      C2432   1.487       .  S
C1863      C2308   1.484       .  S
C1864      C2324   1.489       .  S
C1865      C2344   1.481       .  S
O1866      C1882   1.273       .  A
O1866     Zn1872   2.019       .  S
C1867      O1883   1.273       .  A
C1867      O1880   1.276       .  A
C1867      C2360   1.470       .  S
O1868      C1881   1.274       .  A
O1868     Cd1875   2.079       .  S
O1869      C1887   1.274       .  A
O1869     Cd1878   2.072       .  S
O1870      C1884   1.274       .  A
O1870     Cd1874   2.071       .  S
O1871      C1882   1.277       .  A
O1871     Cd1874   2.078       .  S
Zn1872     O1883   2.012       .  S
Zn1872     O1885   2.002       .  S
Zn1872     O1877   1.930       .  S
O1873      C1884   1.276       .  A
O1873     Cd1878   2.066       .  S
Cd1874     O1876   2.073       .  S
Cd1874     O1877   1.997       .  S
Cd1875     O1879   2.065       .  S
Cd1875     O1888   2.064       .  S
Cd1875     O1877   1.994       .  S
O1876      C1886   1.276       .  A
O1877     Cd1878   1.997       .  S
Cd1878     O1880   2.077       .  S
O1879      C1886   1.273       .  A
C1881      O1885   1.273       .  A
C1881      C2378   1.477       .  S
C1882      C2398   1.479       .  S
C1884      C2252   1.475       .  S
C1886      C2290   1.473       .  S
C1887      O1888   1.276       .  A
C1887      C2272   1.476       .  S
C1889      H1890   1.106       .  S
C1889      C1895   1.531       .  S
C1891      H1892   1.112       .  S
C1891      C1898   1.533       .  S
C1893      C1896   1.376       .  D
C1893      C2254   1.487       .  S
C1894      C1897   1.379       .  D
C1894      C2288   1.482       .  S
C1895      C1898   1.376       .  D
C1895      C2270   1.476       .  S
C1896      C2236   1.493       .  S
C1897      C2198   1.487       .  S
C1898      C2218   1.483       .  S
C1899      H1900   1.112       .  S
C1899      C1905   1.546       .  S
C1899      C1904   1.536       .  S
C1899      C1903   1.540       .  S
C1901      H1902   1.111       .  S
C1901      C1907   1.538       .  S
C1901      C1906   1.531       .  S
C1901      C1908   1.527       .  S
C1903      C1906   1.374       .  D
C1903      C2200   1.488       .  S
C1904      C1907   1.377       .  D
C1904      C2216   1.487       .  S
C1905      C1908   1.379       .  D
C1905      C2234   1.495       .  S
C1906      C2180   1.478       .  S
C1907      C2162   1.484       .  S
C1908      C2144   1.474       .  S
C1909      H1910   1.109       .  S
C1909      C1915   1.536       .  S
C1909      C1914   1.529       .  S
C1909      C1913   1.529       .  S
C1911      H1912   1.111       .  S
C1911      C1917   1.550       .  S
C1911      C1916   1.550       .  S
C1911      C1918   1.553       .  S
C1913      C1916   1.378       .  D
C1913      C2056   1.481       .  S
C1914      C1917   1.375       .  D
C1914      C2072   1.488       .  S
C1915      C1918   1.381       .  D
C1915      C2036   1.499       .  S
C1916      C2110   1.499       .  S
C1917      C2092   1.495       .  S
C1918      C2128   1.492       .  S
C1923      C1926   1.372       .  D
C1923      C2090   1.491       .  S
C1924      C1927   1.381       .  D
C1924      C2126   1.496       .  S
C1925      C1928   1.377       .  D
C1925      C2108   1.503       .  S
C1926      C2018   1.484       .  S
C1927      C2002   1.479       .  S
C1928      C1982   1.485       .  S
O1929      C1945   1.271       .  A
O1929     Zn1935   1.996       .  S
C1930      O1946   1.273       .  A
C1930      O1943   1.274       .  A
C1930      C2020   1.476       .  S
O1931      C1944   1.273       .  A
O1931     Cd1938   2.067       .  S
O1932      C1950   1.276       .  A
O1932     Cd1941   2.079       .  S
O1933      C1947   1.278       .  A
O1933     Cd1937   2.091       .  S
O1934      C1945   1.278       .  A
O1934     Cd1937   2.088       .  S
Zn1935     O1946   2.009       .  S
Zn1935     O1948   2.015       .  S
Zn1935     O1940   1.940       .  S
O1936      C1947   1.274       .  A
O1936     Cd1941   2.065       .  S
Cd1937     O1939   2.084       .  S
Cd1937     O1940   2.012       .  S
Cd1938     O1942   2.062       .  S
Cd1938     O1951   2.059       .  S
Cd1938     O1940   1.993       .  S
O1939      C1949   1.275       .  A
O1940     Cd1941   2.000       .  S
Cd1941     O1943   2.074       .  S
O1942      C1949   1.275       .  A
C1944      O1948   1.274       .  A
C1944      C1984   1.475       .  S
C1945      C2000   1.474       .  S
C1947      C2326   1.477       .  S
C1949      C2306   1.480       .  S
C1950      O1951   1.273       .  A
C1950      C2342   1.473       .  S
O1952      C1968   1.275       .  A
C1953      O1969   1.272       .  A
C1953      O1966   1.273       .  A
C1953      C2182   1.474       .  S
O1954      C1967   1.277       .  A
O1954     Cd1961   2.074   1_556  S
O1955      C1973   1.273       .  A
O1956      C1970   1.277       .  A
O1956     Cd1960   2.082       .  S
O1957      C1968   1.276   1_554  A
O1957     Cd1960   2.085       .  S
Zn1958     O1963   1.940   1_556  S
O1959      C1970   1.273       .  A
Cd1961     O1974   2.087       .  S
O1962      C1972   1.277       .  A
Cd1964     O1966   2.063   1_554  S
O1965      C1972   1.276       .  A
C1967      O1971   1.272       .  A
C1967      C2146   1.470       .  S
C1968      C2164   1.480       .  S
C1970      C2054   1.474       .  S
C1972      C2074   1.481       .  S
C1973      O1974   1.276       .  A
C1973      C2038   1.478       .  S
C1975      C1983   1.484       .  S
C1975      C1976   1.403       .  A
C1975      C1980   1.407       .  A
C1976      C1977   1.397       .  A
C1976      H1985   1.084       .  S
C1977      C1978   1.407       .  A
C1977      H1986   1.082       .  S
C1978      C1981   1.482       .  S
C1978      C1979   1.403       .  A
C1979      C1980   1.397       .  A
C1979      H1987   1.083       .  S
C1980      H1988   1.082       .  S
C1981      C1982   1.345       .  D
C1981      H1989   1.085       .  S
C1982      H1990   1.083       .  S
C1983      C1984   1.345       .  D
C1983      H1991   1.087       .  S
C1984      H1992   1.085       .  S
C1993      C2001   1.484       .  S
C1993      C1994   1.400       .  A
C1993      C1998   1.408       .  A
C1994      C1995   1.399       .  A
C1994      H2003   1.084       .  S
C1995      C1996   1.412       .  A
C1995      H2004   1.079       .  S
C1996      C1999   1.490       .  S
C1996      C1997   1.402       .  A
C1997      C1998   1.397       .  A
C1997      H2005   1.084       .  S
C1998      H2006   1.081       .  S
C1999      C2000   1.343       .  D
C1999      H2007   1.087       .  S
C2000      H2008   1.083       .  S
C2001      C2002   1.341       .  D
C2001      H2009   1.087       .  S
C2002      H2010   1.086       .  S
C2011      C2019   1.486       .  S
C2011      C2012   1.403       .  A
C2011      C2016   1.406       .  A
C2012      C2013   1.398       .  A
C2012      H2021   1.084       .  S
C2013      C2014   1.404       .  A
C2013      H2022   1.082       .  S
C2014      C2017   1.489       .  S
C2014      C2015   1.409       .  A
C2015      C2016   1.397       .  A
C2015      H2023   1.080       .  S
C2016      H2024   1.080       .  S
C2017      C2018   1.347       .  D
C2018      H2026   1.081       .  S
C2019      C2020   1.348       .  D
C2019      H2027   1.088       .  S
C2020      H2028   1.084       .  S
C2029      C2037   1.489       .  S
C2029      C2030   1.405       .  A
C2029      C2034   1.406       .  A
C2030      C2031   1.402       .  A
C2030      H2039   1.081       .  S
C2031      C2032   1.409       .  A
C2031      H2040   1.083       .  S
C2032      C2035   1.491       .  S
C2032      C2033   1.405       .  A
C2033      C2034   1.398       .  A
C2033      H2041   1.082       .  S
C2034      H2042   1.083       .  S
C2035      C2036   1.349       .  D
C2035      H2043   1.083       .  S
C2036      H2044   1.077       .  S
C2037      C2038   1.347       .  D
C2037      H2045   1.086       .  S
C2038      H2046   1.084       .  S
C2047      C2055   1.483       .  S
C2047      C2048   1.401       .  A
C2047      C2052   1.407       .  A
C2048      C2049   1.398       .  A
C2048      H2057   1.083       .  S
C2049      C2050   1.409       .  A
C2049      H2058   1.082       .  S
C2050      C2053   1.484       .  S
C2050      C2051   1.401       .  A
C2051      C2052   1.396       .  A
C2051      H2059   1.083       .  S
C2052      H2060   1.083       .  S
C2053      C2054   1.344       .  D
C2053      H2061   1.087       .  S
C2054      H2062   1.086       .  S
C2055      C2056   1.343       .  D
C2055      H2063   1.087       .  S
C2056      H2064   1.085       .  S
C2065      C2073   1.488       .  S
C2065      C2066   1.403       .  A
C2065      C2070   1.408       .  A
C2066      C2067   1.398       .  A
C2066      H2075   1.083       .  S
C2067      C2068   1.407       .  A
C2067      H2076   1.082       .  S
C2068      C2071   1.488       .  S
C2068      C2069   1.404       .  A
C2069      C2070   1.401       .  A
C2069      H2077   1.083       .  S
C2070      H2078   1.082       .  S
C2071      C2072   1.347       .  D
C2071      H2079   1.087       .  S
C2072      H2080   1.085       .  S
C2073      C2074   1.347       .  D
C2073      H2081   1.087       .  S
C2074      H2082   1.085       .  S
C2083      C2091   1.502       .  S
C2083      C2084   1.405       .  A
C2083      C2088   1.410       .  A
C2084      C2085   1.405       .  A
C2084      H2093   1.082       .  S
C2085      C2086   1.413       .  A
C2085      H2094   1.080       .  S
C2086      C2089   1.505       .  S
C2086      C2087   1.406       .  A
C2087      C2088   1.403       .  A
C2087      H2095   1.082       .  S
C2088      H2096   1.081       .  S
C2089      C2090   1.347       .  D
C2089      H2097   1.087       .  S
C2090      H2098   1.081       .  S
C2091      C2092   1.347       .  D
C2091      H2099   1.086       .  S
C2092      H2100   1.083       .  S
C2101      C2109   1.501       .  S
C2101      C2102   1.409       .  A
C2101      C2106   1.407       .  A
C2102      C2103   1.405       .  A
C2102      H2111   1.085       .  S
C2103      C2104   1.407       .  A
C2103      H2112   1.080       .  S
C2104      C2107   1.500       .  S
C2104      C2105   1.408       .  A
C2105      C2106   1.403       .  A
C2105      H2113   1.085       .  S
C2106      H2114   1.080       .  S
C2107      C2108   1.356       .  D
C2107      H2115   1.088       .  S
C2108      H2116   1.084       .  S
C2109      C2110   1.355       .  D
C2109      H2117   1.087       .  S
C2110      H2118   1.083       .  S
C2119      C2127   1.498       .  S
C2119      C2120   1.406       .  A
C2119      C2124   1.409       .  A
C2120      C2121   1.401       .  A
C2120      H2129   1.083       .  S
C2121      C2122   1.408       .  A
C2121      H2130   1.081       .  S
C2122      C2125   1.496       .  S
C2122      C2123   1.406       .  A
C2123      C2124   1.404       .  A
C2123      H2131   1.083       .  S
C2124      H2132   1.080       .  S
C2125      C2126   1.351       .  D
C2125      H2133   1.086       .  S
C2126      H2134   1.084       .  S
C2127      C2128   1.350       .  D
C2127      H2135   1.087       .  S
C2128      H2136   1.082       .  S
C2137      C2145   1.479       .  S
C2137      C2138   1.400       .  A
C2137      C2142   1.409       .  A
C2138      C2139   1.393       .  A
C2138      H2147   1.082       .  S
C2139      C2140   1.406       .  A
C2139      H2148   1.084       .  S
C2140      C2143   1.478       .  S
C2140      C2141   1.401       .  A
C2141      C2142   1.398       .  A
C2141      H2149   1.083       .  S
C2142      H2150   1.083       .  S
C2143      C2144   1.341       .  D
C2143      H2151   1.086       .  S
C2144      H2152   1.086       .  S
C2145      C2146   1.341       .  D
C2145      H2153   1.086       .  S
C2146      H2154   1.085       .  S
C2155      C2163   1.489       .  S
C2155      C2156   1.404       .  A
C2155      C2160   1.409       .  A
C2156      C2157   1.395       .  A
C2156      H2165   1.084       .  S
C2157      C2158   1.407       .  A
C2157      H2166   1.082       .  S
C2158      C2161   1.489       .  S
C2158      C2159   1.405       .  A
C2159      C2160   1.401       .  A
C2159      H2167   1.083       .  S
C2160      H2168   1.081       .  S
C2161      C2162   1.346       .  D
C2161      H2169   1.086       .  S
C2162      H2170   1.083       .  S
C2163      C2164   1.348       .  D
C2163      H2171   1.088       .  S
C2164      H2172   1.085       .  S
C2173      C2181   1.480       .  S
C2173      C2174   1.403       .  A
C2173      C2178   1.406       .  A
C2174      C2175   1.398       .  A
C2174      H2183   1.083       .  S
C2175      C2176   1.404       .  A
C2175      H2184   1.084       .  S
C2176      C2179   1.476       .  S
C2176      C2177   1.402       .  A
C2177      C2178   1.399       .  A
C2177      H2185   1.083       .  S
C2178      H2186   1.083       .  S
C2179      C2180   1.340       .  D
C2179      H2187   1.087       .  S
C2180      H2188   1.086       .  S
C2181      C2182   1.344       .  D
C2181      H2189   1.087       .  S
C2182      H2190   1.086       .  S
C2191      C2199   1.490       .  S
C2191      C2192   1.404       .  A
C2191      C2196   1.408       .  A
C2192      C2193   1.397       .  A
C2192      H2201   1.083       .  S
C2193      C2194   1.408       .  A
C2193      H2202   1.080       .  S
C2194      C2197   1.493       .  S
C2194      C2195   1.405       .  A
C2195      C2196   1.401       .  A
C2195      H2203   1.082       .  S
C2196      H2204   1.081       .  S
C2197      C2198   1.348       .  D
C2197      H2205   1.085       .  S
C2198      H2206   1.081       .  S
C2199      C2200   1.347       .  D
C2199      H2207   1.086       .  S
C2200      H2208   1.082       .  S
C2209      C2217   1.485       .  S
C2209      C2210   1.402       .  A
C2209      C2214   1.407       .  A
C2210      C2211   1.398       .  A
C2210      H2219   1.083       .  S
C2211      C2212   1.410       .  A
C2211      H2220   1.080       .  S
C2212      C2215   1.490       .  S
C2212      C2213   1.405       .  A
C2213      C2214   1.398       .  A
C2213      H2221   1.081       .  S
C2214      H2222   1.084       .  S
C2215      C2216   1.347       .  D
C2215      H2223   1.084       .  S
C2216      H2224   1.081       .  S
C2217      C2218   1.344       .  D
C2217      H2225   1.086       .  S
C2218      H2226   1.084       .  S
C2227      C2235   1.498       .  S
C2227      C2228   1.407       .  A
C2227      C2232   1.409       .  A
C2228      C2229   1.402       .  A
C2228      H2237   1.083       .  S
C2229      C2230   1.408       .  A
C2229      H2238   1.082       .  S
C2230      C2233   1.496       .  S
C2230      C2231   1.406       .  A
C2231      C2232   1.403       .  A
C2231      H2239   1.083       .  S
C2232      H2240   1.081       .  S
C2233      C2234   1.350       .  D
C2233      H2241   1.086       .  S
C2234      H2242   1.084       .  S
C2235      C2236   1.350       .  D
C2235      H2243   1.086       .  S
C2236      H2244   1.082       .  S
C2245      C2253   1.483       .  S
C2245      C2246   1.402       .  A
C2245      C2250   1.406       .  A
C2246      C2247   1.399       .  A
C2246      H2255   1.083   1_565  S
C2247      C2248   1.409       .  A
C2247      H2256   1.081       .  S
C2248      C2251   1.486       .  S
C2248      C2249   1.403       .  A
C2249      C2250   1.395       .  A
C2249      H2257   1.084       .  S
C2250      H2258   1.082       .  S
C2251      C2252   1.346       .  D
C2251      H2259   1.088       .  S
C2252      H2260   1.085       .  S
C2253      C2254   1.344       .  D
C2253      H2261   1.086   1_565  S
C2254      H2262   1.079       .  S
C2263      C2271   1.486       .  S
C2263      C2264   1.402       .  A
C2263      C2268   1.410       .  A
C2264      C2265   1.393       .  A
C2264      H2273   1.083       .  S
C2265      C2266   1.406       .  A
C2265      H2274   1.082       .  S
C2266      C2269   1.483       .  S
C2266      C2267   1.402       .  A
C2267      C2268   1.400       .  A
C2267      H2275   1.083       .  S
C2268      H2276   1.080       .  S
C2269      C2270   1.342       .  D
C2269      H2277   1.087       .  S
C2270      H2278   1.085       .  S
C2271      C2272   1.345       .  D
C2271      H2279   1.087       .  S
C2272      H2280   1.083       .  S
C2281      C2289   1.474       .  S
C2281      C2282   1.400       .  A
C2281      C2286   1.405       .  A
C2282      C2283   1.396       .  A
C2282      H2291   1.082       .  S
C2283      C2284   1.405       .  A
C2283      H2292   1.084       .  S
C2284      C2287   1.476       .  S
C2284      C2285   1.402       .  A
C2285      C2286   1.399       .  A
C2285      H2293   1.082       .  S
C2286      H2294   1.084       .  S
C2287      C2288   1.343       .  D
C2287      H2295   1.085       .  S
C2288      H2296   1.086       .  S
C2289      C2290   1.341       .  D
C2289      H2297   1.086       .  S
C2290      H2298   1.087       .  S
C2299      C2307   1.487       .  S
C2299      C2300   1.405       .  A
C2299      C2304   1.407       .  A
C2300      C2301   1.400       .  A
C2300      H2309   1.084       .  S
C2301      C2302   1.407       .  A
C2301      H2310   1.080       .  S
C2302      C2305   1.486       .  S
C2302      C2303   1.403       .  A
C2303      C2304   1.396       .  A
C2303      H2311   1.084       .  S
C2304      H2312   1.080       .  S
C2305      C2306   1.347       .  D
C2305      H2313   1.087       .  S
C2306      H2314   1.085       .  S
C2307      C2308   1.346       .  D
C2307      H2315   1.086       .  S
C2308      H2316   1.083       .  S
C2317      C2325   1.489       .  S
C2317      C2318   1.404   1_655  A
C2318      H2327   1.082   1_455  S
C2319      C2320   1.409       .  A
C2319      H2328   1.082       .  S
C2320      C2323   1.488       .  S
C2320      C2321   1.403       .  A
C2321      C2322   1.397       .  A
C2321      H2329   1.083       .  S
C2322      H2330   1.082       .  S
C2323      C2324   1.345       .  D
C2323      H2331   1.087       .  S
C2324      H2332   1.085       .  S
C2325      C2326   1.346       .  D
C2325      H2333   1.086       .  S
C2326      H2334   1.085       .  S
C2335      C2343   1.482       .  S
C2335      C2336   1.401       .  A
C2335      C2340   1.408       .  A
C2336      H2345   1.084       .  S
C2337      C2338   1.408       .  A
C2337      H2346   1.082       .  S
C2338      C2341   1.485       .  S
C2339      C2340   1.399       .  A
C2339      H2347   1.085   1_565  S
C2340      H2348   1.081       .  S
C2341      C2342   1.345       .  D
C2341      H2349   1.086       .  S
C2342      H2350   1.085       .  S
C2343      C2344   1.341       .  D
C2343      H2351   1.087       .  S
C2344      H2352   1.084       .  S
C2353      C2361   1.476       .  S
C2353      C2354   1.401       .  A
C2353      C2358   1.406       .  A
C2354      C2355   1.396       .  A
C2354      H2363   1.084       .  S
C2355      C2356   1.405       .  A
C2355      H2364   1.084       .  S
C2356      C2359   1.478       .  S
C2356      C2357   1.402       .  A
C2357      C2358   1.399       .  A
C2357      H2365   1.083       .  S
C2358      H2366   1.083       .  S
C2359      C2360   1.342       .  D
C2359      H2367   1.086       .  S
C2360      H2368   1.086       .  S
C2361      C2362   1.342       .  D
C2361      H2369   1.088       .  S
C2362      H2370   1.087       .  S
C2371      C2379   1.489       .  S
C2371      C2372   1.405       .  A
C2371      C2376   1.408       .  A
C2372      H2381   1.083       .  S
C2373      C2374   1.405       .  A
C2373      H2382   1.084       .  S
C2374      C2377   1.481       .  S
C2375      C2376   1.397   1_455  A
C2375      H2383   1.083       .  S
C2376      H2384   1.080       .  S
C2377      C2378   1.346       .  D
C2377      H2385   1.086       .  S
C2378      H2386   1.085       .  S
C2379      C2380   1.347       .  D
C2379      H2387   1.087       .  S
C2380      H2388   1.083       .  S
C2389      C2397   1.487       .  S
C2389      C2394   1.410       .  A
C2390      C2391   1.394       .  A
C2390      H2399   1.083       .  S
C2391      C2392   1.405       .  A
C2391      H2400   1.083       .  S
C2392      C2395   1.479       .  S
C2392      C2393   1.401       .  A
C2393      H2401   1.083       .  S
C2394      H2402   1.082       .  S
C2395      C2396   1.342       .  D
C2395      H2403   1.085       .  S
C2396      H2404   1.085       .  S
C2397      C2398   1.345       .  D
C2397      H2405   1.086       .  S
C2398      H2406   1.084       .  S
C2407      C2415   1.490       .  S
C2407      C2408   1.405       .  A
C2407      C2412   1.408       .  A
C2408      C2409   1.399       .  A
C2408      H2417   1.083       .  S
C2409      C2410   1.407       .  A
C2409      H2418   1.081       .  S
C2410      C2413   1.489       .  S
C2410      C2411   1.404       .  A
C2411      C2412   1.399       .  A
C2411      H2419   1.084       .  S
C2412      H2420   1.079       .  S
C2413      C2414   1.347       .  D
C2413      H2421   1.087       .  S
C2414      H2422   1.084       .  S
C2415      C2416   1.348       .  D
C2415      H2423   1.086       .  S
C2416      H2424   1.082       .  S
C2425      C2433   1.489       .  S
C2425      C2430   1.408       .  A
C2426      C2427   1.400   1_545  A
C2426      H2435   1.083       .  S
C2427      C2428   1.408       .  A
C2427      H2436   1.082       .  S
C2428      C2431   1.488       .  S
C2429      C2430   1.396       .  A
C2429      H2437   1.083       .  S
C2430      H2438   1.080       .  S
C2431      C2432   1.347       .  D
C2431      H2439   1.088       .  S
C2432      H2440   1.085       .  S
C2433      C2434   1.347       .  D
C2433      H2441   1.086       .  S
C2434      H2442   1.083       .  S
C2443      C2451   1.484       .  S
C2443      C2444   1.402       .  A
C2443      C2448   1.408       .  A
C2444      H2453   1.084       .  S
C2445      C2446   1.407       .  A
C2445      H2454   1.081       .  S
C2446      C2449   1.484       .  S
C2446      C2447   1.403       .  A
C2447      H2455   1.084       .  S
C2448      H2456   1.081       .  S
C2449      C2450   1.345       .  D
C2449      H2457   1.088       .  S
C2450      H2458   1.085       .  S
C2451      C2452   1.344       .  D
C2451      H2459   1.087       .  S
C2452      H2460   1.084       .  S
