geometry optimzed in LAMMPS
_audit_creation_date              2020-12-01 
_audit_creation_method            'lammps2cif' 
_symmetry_space_group_name_H-M    'P1' 
_symmetry_Int_Tables_number       1 
_symmetry_cell_setting            triclinic 
loop_ 
_symmetry_equiv_pos_as_xyz 
  x,y,z 
_cell_length_a                    26.90229304 
_cell_length_b                    37.47764068127843 
_cell_length_c                    36.54272418091273 
_cell_angle_alpha                 89.81907945609004 
_cell_angle_beta                  90.0967886399032 
_cell_angle_gamma                 114.1924726340906 
loop_ 
_atom_site_label 
_atom_site_type_symbol 
_atom_site_fract_x 
_atom_site_fract_y 
_atom_site_fract_z 
_atom_site_charge 
C1          C  0.15298688  0.21578922  0.59247827     0.46300
H2          H  0.15329666  0.21581779  0.56201679    -0.02700
C3          C  0.15227383  0.21551221  0.66384172     0.46400
H4          H  0.15194390  0.21545001  0.69424770    -0.02700
C5          C  0.12509557  0.17524953  0.60916178    -0.16400
C6          C  0.20925769  0.23274103  0.60944089    -0.16200
C7          C  0.12395494  0.23935481  0.60892678    -0.16500
C8          C  0.12338887  0.17451727  0.64660905    -0.16500
C9          C  0.21014185  0.23335469  0.64690499    -0.16100
C10         C  0.12283881  0.23930810  0.64652036    -0.16400
C11         C  0.15143407  0.21698896  0.83366511     0.46300
H12         H  0.15053229  0.21753152  0.80327359    -0.02700
C13         C  0.15275225  0.21568654  0.90498215     0.46400
H14         H  0.15318841  0.21519064  0.93543897    -0.02700
C15         C  0.12073489  0.23912164  0.85178943    -0.16400
C16         C  0.12462591  0.17530521  0.85017966    -0.16200
C17         C  0.20946660  0.23528693  0.85037281    -0.16500
C18         C  0.12172021  0.23827104  0.88919903    -0.16500
C19         C  0.12668766  0.17536086  0.88771313    -0.16100
C20         C  0.20892436  0.23432661  0.88794152    -0.16400
C21         C  0.96826634  0.32809954  0.71315232     0.46300
H22         H  0.96892631  0.32824981  0.68274716    -0.02700
C23         C  0.96710887  0.32742188  0.78451925     0.46400
H24         H  0.96705387  0.32724024  0.81492657    -0.02700
C25         C  0.99647508  0.03562318  0.73034370    -0.16400
C26         C  0.41043978  0.30927476  0.72954908    -0.16200
C27         C  0.99845707  0.30502520  0.73020280    -0.16500
C28         C  0.99563446  0.03536574  0.76799255    -0.16500
C29         C  0.40978458  0.30944441  0.76719840    -0.16100
C30         C  0.99766300  0.30470587  0.76776016    -0.16400
C31         C  0.30795897  0.08773639  0.33465906     0.46300
H32         H  0.30935248  0.08783382  0.30427024    -0.02700
C33         C  0.30497736  0.08768424  0.40593098     0.46400
H34         H  0.30385460  0.08772194  0.43637913    -0.02700
C35         C  0.33688561  0.06399608  0.35274114    -0.16400
C36         C  0.33638487  0.12884624  0.35176524    -0.16200
C37         C  0.24939094  0.07032858  0.35076004    -0.16500
C38         C  0.33441301  0.06395228  0.39027283    -0.16500
C39         C  0.33366171  0.12824128  0.38920064    -0.16100
C40         C  0.24902342  0.07076225  0.38831186    -0.16400
C41         C  0.30499721  0.08879014  0.09201775     0.46300
H42         H  0.30416858  0.08921563  0.06156961    -0.02700
C43         C  0.30706442  0.08767316  0.16330330     0.46400
H44         H  0.30788442  0.08713198  0.19369707    -0.02700
C45         C  0.33118672  0.12925135  0.10911644    -0.16400
C46         C  0.24894613  0.06990467  0.10930291    -0.16200
C47         C  0.33652510  0.06641184  0.10767789    -0.16500
C48         C  0.33344971  0.12933689  0.14667561    -0.16500
C49         C  0.24896241  0.06865144  0.14677101    -0.16100
C50         C  0.33842439  0.06587425  0.14518159    -0.16400
C51         C  0.49147555  0.30966488  0.21320969     0.46300
H52         H  0.49133109  0.31014283  0.18280381    -0.02700
C53         C  0.49172876  0.30860509  0.28454384     0.46400
H54         H  0.49171743  0.30815972  0.31494927    -0.02700
C55         C  0.46389659  0.26817703  0.22963033    -0.16400
C56         C  0.04899172  0.32810511  0.22995916    -0.16200
C57         C  0.46041292  0.33195597  0.23050960    -0.16500
C58         C  0.46366083  0.26767471  0.26730717    -0.16500
C59         C  0.04923827  0.32740484  0.26755669    -0.16100
C60         C  0.46091756  0.33162792  0.26820246    -0.16400
O61         O  0.45547406  0.22723508  0.03242393    -0.80000
O62         O  0.06782282  0.05618557  0.96040079    -0.64700
O63         O  0.49213067  0.30846723  0.02838504    -1.11300
C64         C  0.34383214  0.28927047  0.94949326     1.06900
O65         O  0.00324218  0.07788921  0.96398230    -0.77900
O66         O  0.41093973  0.04053137  0.00088254    -0.65500
Ni67       Ni  0.02150658  0.27194607  0.04288278     1.34900
C68         C  0.39722521  0.01917309  0.02918457     0.85600
O69         O  0.09710272  0.03394006  0.02360642    -0.78500
O70         O  0.08902826  0.31389769  0.05601935    -0.88700
C71         C  0.04934846  0.08127398  0.95260551     0.85200
O72         O  0.04873546  0.26515619  0.99645893    -0.66900
O73         O  0.36816391  0.32546477  0.94173019    -0.86200
C74         C  0.06059640  0.28551820  0.96748267     0.86000
C75         C  0.11359354  0.01654027  0.04757025     1.07600
H76         H  0.46979336  0.31785824  0.94544951     0.39400
O77         O  0.46534971  0.32991624  0.96782505    -1.08900
O78         O  0.39952617  0.31945525  0.03169481    -0.65500
Ni79       Ni  0.42567408  0.28908627  0.00125256     1.26300
O80         O  0.05685709  0.31797356  0.96423578    -0.65800
O81         O  0.36089540  0.27111152  0.97233449    -0.78100
C82         C  0.40905432  0.22337278  0.04361788     0.85400
O83         O  0.38999048  0.24810376  0.03547374    -0.65200
Ni84       Ni  0.43663775  0.03360079  0.95406439     1.27400
Ni85       Ni  0.03203305  0.01570520  0.99483291     1.26100
H86         H  0.48744483  0.32075729  0.05054190     0.39900
O87         O  0.00179089  0.07630531  0.53541642    -0.80000
O88         O  0.39048586  0.24765842  0.46166406    -0.64700
O89         O  0.46579080  0.32842487  0.52990158    -1.11300
C90         C  0.11377325  0.01590698  0.45015257     1.06900
O91         O  0.45547651  0.22637875  0.46506574    -0.77900
O92         O  0.04784457  0.26408194  0.50176339    -0.65500
Ni93       Ni  0.43588370  0.03105949  0.54468912     1.34900
C94         C  0.06103785  0.28508429  0.53021798     0.85600
O95         O  0.36159920  0.26890988  0.52497410    -0.78500
O96         O  0.36805241  0.32210913  0.55672554    -0.88700
C97         C  0.40907038  0.22266799  0.45391229     0.85200
O98         O  0.40969884  0.03869949  0.49810975    -0.66900
O99         O  0.08961367  0.31306660  0.44235172    -0.86200
C100        C  0.39685283  0.01808753  0.46939516     0.86000
C101        C  0.34427786  0.28611093  0.54835774     1.07600
H102        H  0.48754052  0.31998607  0.44674502     0.39400
O103        O  0.49244810  0.30778487  0.46905497    -1.08900
O104        O  0.05838246  0.31791837  0.53282903    -0.65500
Ni105      Ni  0.03206872  0.01501890  0.50259925     1.26300
O106        O  0.40004917  0.31880768  0.46630396    -0.65800
O107        O  0.09689362  0.03357763  0.47350916    -0.78100
C108        C  0.04882345  0.08028022  0.54543031     0.85400
O109        O  0.06774807  0.05563891  0.53689903    -0.65200
Ni110      Ni  0.02170352  0.27117894  0.45497006     1.27400
Ni111      Ni  0.42623585  0.28794911  0.49619409     1.26100
H112        H  0.47075399  0.31605016  0.55202819     0.39900
C113        C  0.20113338  0.05410221  0.08673439    -0.12400
C114        C  0.16198616  0.03868397  0.06748472    -0.14000
C115        C  0.37830957  0.19048424  0.06601932    -0.12400
C116        C  0.35621881  0.16313478  0.08613956    -0.14000
C117        C  0.37745600  0.03316186  0.05989333    -0.12400
C118        C  0.35999201  0.04715294  0.08354667    -0.14000
C119        C  0.36249151  0.20069978  0.16172218    -0.12500
C120        C  0.36592989  0.16482795  0.16852605     0.09700
C121        C  0.40333435  0.16343817  0.19474232    -0.12500
C122        C  0.43696197  0.19730032  0.21349599    -0.12500
C123        C  0.43318923  0.23308979  0.20683026     0.09700
C124        C  0.39609125  0.23453331  0.18045697    -0.12500
H125        H  0.33344241  0.20251663  0.14208243     0.13600
H126        H  0.40733724  0.13631387  0.20021081     0.13600
H127        H  0.46545655  0.19547907  0.23360274     0.13600
H128        H  0.39175638  0.26157725  0.17522138     0.13600
C129        C  0.34449721  0.02277189  0.19576303    -0.12500
C130        C  0.36937754  0.04801090  0.16651185     0.09700
C131        C  0.42412755  0.05667714  0.15813767    -0.12500
C132        C  0.45347716  0.04026265  0.17868322    -0.12500
C133        C  0.42867658  0.01515673  0.20806984     0.09700
C134        C  0.37349592  0.33915499  0.21593662    -0.12500
H135        H  0.30217440  0.34881104  0.20258521     0.13600
H136        H  0.44445271  0.07669033  0.13608218     0.13600
H137        H  0.49583593  0.04774665  0.17211025     0.13600
H138        H  0.35306107  0.31906961  0.23790910     0.13600
C139        C  0.16198394  0.01067062  0.16160732    -0.12500
C140        C  0.19833884  0.04955034  0.16877527     0.09700
C141        C  0.18466514  0.07070937  0.19549372    -0.12500
C142        C  0.13512928  0.05347522  0.21435725    -0.12500
C143        C  0.09908197  0.01441966  0.20751889     0.09700
C144        C  0.11268490  0.99331743  0.18070540    -0.12500
H145        H  0.17191146  0.99369218  0.14124330     0.13600
H146        H  0.21179254  0.10078329  0.20119963     0.13600
H147        H  0.12516211  0.07046926  0.23468000     0.13600
H148        H  0.08632311  0.29621717  0.17552133     0.13600
C149        C  0.20125104  0.05356360  0.41081090    -0.12400
C150        C  0.16225908  0.03784952  0.43016719    -0.14000
C151        C  0.35655846  0.16217359  0.41208523    -0.12400
C152        C  0.37789637  0.18966630  0.43199170    -0.14000
C153        C  0.37727782  0.03244506  0.43871293    -0.12400
C154        C  0.35940608  0.04584477  0.41467349    -0.14000
C155        C  0.42455109  0.18578273  0.33744144    -0.12500
C156        C  0.36869964  0.16457003  0.33021215     0.09700
C157        C  0.34400999  0.17769762  0.30263424    -0.12500
C158        C  0.37454516  0.21174936  0.28285882    -0.12500
C159        C  0.43066987  0.23259282  0.28960674     0.09700
C160        C  0.45524862  0.21957069  0.31735465    -0.12500
H161        H  0.44449477  0.17590489  0.35843612     0.13600
H162        H  0.30100078  0.16190991  0.29679609     0.13600
H163        H  0.35445116  0.22172582  0.26205019     0.13600
H164        H  0.49833948  0.23518625  0.32302783     0.13600
C165        C  0.36407983  0.00879924  0.33823838    -0.12500
C166        C  0.36912174  0.04708260  0.33156327     0.09700
C167        C  0.40623132  0.06986842  0.30495575    -0.12500
C168        C  0.43771176  0.05466308  0.28533491    -0.12500
C169        C  0.43184019  0.01611179  0.29148270     0.09700
C170        C  0.39538549  0.32680968  0.31844871    -0.12500
H171        H  0.33543104  0.32388721  0.35838129     0.13600
H172        H  0.41130214  0.09961736  0.29963768     0.13600
H173        H  0.46605819  0.07275917  0.26491645     0.13600
H174        H  0.38982397  0.29689416  0.32340124     0.13600
C175        C  0.14552119  0.00407352  0.28305271    -0.12500
C176        C  0.09986110  0.01232576  0.29002642     0.09700
C177        C  0.10411489  0.04049639  0.31643662    -0.12500
C178        C  0.15315832  0.06027489  0.33528490    -0.12500
C179        C  0.19881555  0.05199643  0.32837095     0.09700
C180        C  0.19467579  0.02401609  0.30176842    -0.12500
H181        H  0.14338380  0.31582536  0.26262216     0.13600
H182        H  0.06986151  0.04785735  0.32184322     0.13600
H183        H  0.15547683  0.08212727  0.35532206     0.13600
H184        H  0.22905512  0.01687397  0.29613993     0.13600
C185        C  0.10235845  0.14145244  0.91048975    -0.12400
C186        C  0.08044970  0.11407608  0.93046639    -0.14000
C187        C  0.25585635  0.25197219  0.91090973    -0.12400
C188        C  0.29492601  0.26776485  0.93004251    -0.14000
C189        C  0.09710236  0.25700989  0.91305914    -0.12400
C190        C  0.07963421  0.27098433  0.93674769    -0.14000
C191        C  0.30699832  0.24737014  0.83750482    -0.12500
C192        C  0.26036807  0.25360989  0.82837267     0.09700
C193        C  0.26342495  0.27885078  0.79922948    -0.12500
C194        C  0.31245642  0.29836832  0.78038423    -0.11500
C195        C  0.35900253  0.29195288  0.78945825     0.09700
C196        C  0.35586980  0.26669816  0.81856206    -0.12500
H197        H  0.30562332  0.22726783  0.85921073     0.13600
H198        H  0.22826664  0.28405124  0.79137255     0.13600
H199        H  0.31384683  0.31819080  0.75840485     0.13600
H200        H  0.39081991  0.26117356  0.82622019     0.13600
C201        C  0.11640924  0.28926081  0.80838356    -0.12500
C202        C  0.08958142  0.25654699  0.83071540     0.09700
C203        C  0.03256918  0.24008617  0.83286151    -0.12500
C204        C  0.00257822  0.25612516  0.81272672    -0.12500
C205        C  0.02933015  0.28882707  0.79038246     0.09700
C206        C  0.08641619  0.30539584  0.78832501    -0.12500
H207        H  0.16036720  0.30265892  0.80693127     0.13600
H208        H  0.01137992  0.21449439  0.84971798     0.13600
H209        H  0.95862405  0.24227281  0.81370426     0.13600
H210        H  0.10755859  0.33067407  0.77108069     0.13600
C211        C  0.05433079  0.14023378  0.80264866    -0.12500
C212        C  0.09290807  0.13964568  0.82829093     0.09700
C213        C  0.09800949  0.10426761  0.83472310    -0.12500
C214        C  0.06467746  0.07007358  0.81630110    -0.12500
C215        C  0.02611629  0.07066423  0.79066871     0.09700
C216        C  0.02098598  0.10602621  0.78421204    -0.12500
H217        H  0.04919001  0.16698609  0.79742455     0.13600
H218        H  0.12798757  0.10311033  0.85394592     0.13600
H219        H  0.07019034  0.04341938  0.82124280     0.13600
H220        H  0.49156426  0.10727399  0.76453625     0.13600
C221        C  0.08065867  0.11357929  0.56674250    -0.12400
C222        C  0.10225756  0.14134057  0.58627308    -0.14000
C223        C  0.25649373  0.24812919  0.58662738    -0.12400
C224        C  0.29566566  0.26369306  0.56761192    -0.14000
C225        C  0.08046880  0.27096706  0.56112215    -0.12400
C226        C  0.09845176  0.25758406  0.58509832    -0.14000
C227        C  0.03616007  0.11637476  0.65947067    -0.12500
C228        C  0.09126122  0.13879050  0.66804142     0.09700
C229        C  0.11541429  0.12676113  0.69671104    -0.12500
C230        C  0.08516730  0.09248797  0.71615258    -0.12500
C231        C  0.02969175  0.07053081  0.70811341     0.09700
C232        C  0.00571639  0.08241347  0.67924120    -0.12500
H233        H  0.01650453  0.12545051  0.63769334     0.13600
H234        H  0.15782915  0.14347526  0.70359433     0.13600
H235        H  0.10496831  0.08326669  0.73772194     0.13600
H236        H  0.46315780  0.06600326  0.67257380     0.13600
C237        C  0.32563239  0.24958896  0.71383881    -0.12500
C238        C  0.36088097  0.28885391  0.70672017     0.09700
C239        C  0.34664016  0.30936200  0.67952950    -0.12500
C240        C  0.29723277  0.29145410  0.66068419    -0.12500
C241        C  0.26139171  0.25251928  0.66834052     0.09700
C242        C  0.27598631  0.23173834  0.69512536    -0.12500
H243        H  0.33612001  0.23302227  0.73446366     0.13600
H244        H  0.37292443  0.33959752  0.67369223     0.13600
H245        H  0.28666429  0.30816433  0.64025095     0.13600
H246        H  0.24939196  0.20162219  0.70118129     0.13600
C247        C  0.05650691  0.23451154  0.69594699    -0.12500
C248        C  0.09210673  0.25673741  0.66841959     0.09700
C249        C  0.09638363  0.29471901  0.66111025    -0.12500
C250        C  0.06497260  0.31000209  0.68067724    -0.12500
C251        C  0.02914439  0.28769059  0.70805000     0.09700
C252        C  0.02484142  0.24968087  0.71531623    -0.12500
H253        H  0.05218396  0.20503269  0.70184387     0.13600
H254        H  0.12433245  0.31268062  0.64045468     0.13600
H255        H  0.06950760  0.33956015  0.67497717     0.13600
H256        H  0.99687397  0.23168435  0.73594253     0.13600
C257        C  0.15305259  0.54912694  0.59249000     0.46300
H258        H  0.15334560  0.54916380  0.56202804    -0.02700
C259        C  0.15238582  0.54884219  0.66385365     0.46400
H260        H  0.15206322  0.54877034  0.69425949    -0.02700
C261        C  0.12512421  0.50858605  0.60916286    -0.16400
C262        C  0.20933080  0.56603674  0.60943895    -0.16200
C263        C  0.12408124  0.57272453  0.60895859    -0.16500
C264        C  0.12345193  0.50785160  0.64661126    -0.16500
C265        C  0.21025404  0.56665436  0.64690389    -0.16100
C266        C  0.12297849  0.57267239  0.64655083    -0.16400
C267        C  0.15131705  0.55028645  0.83367674     0.46300
H268        H  0.15032981  0.55078120  0.80328590    -0.02700
C269        C  0.15283295  0.54910292  0.90499309     0.46400
H270        H  0.15335717  0.54865886  0.93544963    -0.02700
C271        C  0.12067985  0.57245621  0.85181601    -0.16400
C272        C  0.12453316  0.50863088  0.85025515    -0.16200
C273        C  0.20939925  0.56860111  0.85030618    -0.16500
C274        C  0.12176496  0.57166419  0.88922438    -0.16500
C275        C  0.12670334  0.50874742  0.88778639    -0.16100
C276        C  0.20895625  0.56771978  0.88787732    -0.16400
C277        C  0.96837632  0.66150847  0.71315254     0.46300
H278        H  0.96909017  0.66168769  0.68274832    -0.02700
C279        C  0.96707290  0.66075829  0.78451920     0.46400
H280        H  0.96696599  0.66054820  0.81492666    -0.02700
C281        C  0.99625959  0.36904036  0.73035246    -0.16400
C282        C  0.41056125  0.64261052  0.72956593    -0.16200
C283        C  0.99857822  0.63844317  0.73020795    -0.16500
C284        C  0.99547175  0.36876404  0.76800423    -0.16500
C285        C  0.40982043  0.64278272  0.76721422    -0.16100
C286        C  0.99770764  0.63808857  0.76776542    -0.16400
C287        C  0.30805149  0.42111617  0.33465817     0.46300
H288        H  0.30949981  0.42126032  0.30427089    -0.02700
C289        C  0.30494877  0.42095335  0.40592795     0.46400
H290        H  0.30377534  0.42094253  0.43637648    -0.02700
C291        C  0.33699359  0.39736982  0.35273123    -0.16400
C292        C  0.33642555  0.46221703  0.35182926    -0.16200
C293        C  0.24943434  0.40364067  0.35071698    -0.16500
C294        C  0.33445229  0.39727919  0.39025957    -0.16500
C295        C  0.33362672  0.46153400  0.38926308    -0.16100
C296        C  0.24902679  0.40403530  0.38827063    -0.16400
C297        C  0.30492402  0.42207063  0.09196131     0.46300
H298        H  0.30407468  0.42247318  0.06151257    -0.02700
C299        C  0.30704907  0.42099082  0.16324719     0.46400
H300        H  0.30787690  0.42045686  0.19364040    -0.02700
C301        C  0.33130927  0.46253713  0.10902966    -0.16400
C302        C  0.24887332  0.40331951  0.10926226    -0.16200
C303        C  0.33628816  0.39957879  0.10763043    -0.16500
C304        C  0.33359756  0.46264644  0.14659349    -0.16500
C305        C  0.24892270  0.40207805  0.14672858    -0.16100
C306        C  0.33823751  0.39906212  0.14513234    -0.16400
C307        C  0.49140449  0.64300323  0.21317243     0.46300
H308        H  0.49120964  0.64344433  0.18276651    -0.02700
C309        C  0.49180575  0.64205019  0.28450466     0.46400
H310        H  0.49186037  0.64165531  0.31491020    -0.02700
C311        C  0.46385253  0.60153033  0.22964997    -0.16400
C312        C  0.04904281  0.66140131  0.22998801    -0.16200
C313        C  0.46038097  0.66531973  0.23046927    -0.16500
C314        C  0.46368883  0.60108690  0.26733491    -0.16500
C315        C  0.04934266  0.66071923  0.26758124    -0.16100
C316        C  0.46095300  0.66504322  0.26816123    -0.16400
O317        O  0.45545793  0.56049908  0.03219301    -0.80000
O318        O  0.06775080  0.38945872  0.96026972    -0.64700
O319        O  0.49211621  0.64172259  0.02835716    -1.11300
C320        C  0.34397373  0.62271522  0.94934848     1.06900
O321        O  0.00329118  0.41125177  0.96411147    -0.77900
O322        O  0.41073302  0.37377926  0.00086905    -0.65500
Ni323      Ni  0.02133634  0.60523742  0.04287213     1.34900
C324        C  0.39696702  0.35237511  0.02913864     0.85600
O325        O  0.09713686  0.36720865  0.02342314    -0.78500
O326        O  0.08881557  0.64717063  0.05613048    -0.88700
C327        C  0.04934919  0.41462624  0.95263784     0.85200
O328        O  0.04874479  0.59850864  0.99649443    -0.66900
O329        O  0.36833672  0.65892400  0.94164897    -0.86200
C330        C  0.06067243  0.61889600  0.96753557     0.86000
C331        C  0.11354002  0.34987995  0.04750834     1.07600
H332        H  0.46995271  0.65128343  0.94542636     0.39400
O333        O  0.46546813  0.66330210  0.96781715    -1.08900
O334        O  0.39950029  0.65274238  0.03163992    -0.65500
Ni335      Ni  0.42570394  0.62240749  0.00115932     1.26300
O336        O  0.05693030  0.65134708  0.96429122    -0.65800
O337        O  0.36098897  0.60450489  0.97216853    -0.78100
C338        C  0.40903535  0.55660295  0.04340810     0.85400
O339        O  0.38994529  0.58133059  0.03529220    -0.65200
Ni340      Ni  0.43651587  0.36690420  0.95406459     1.27400
Ni341      Ni  0.03198263  0.34900532  0.99472695     1.26100
H342        H  0.48738461  0.65396912  0.05052988     0.39900
O343        O  0.00177707  0.40965971  0.53532844    -0.80000
O344        O  0.39053202  0.58091371  0.46169993    -0.64700
O345        O  0.46575796  0.66171687  0.52990446    -1.11300
C346        C  0.11377154  0.34923118  0.45011752     1.06900
O347        O  0.45554425  0.55965016  0.46509822    -0.77900
O348        O  0.04814789  0.59754474  0.50180789    -0.65500
Ni349      Ni  0.43581745  0.36439913  0.54469976     1.34900
C350        C  0.06115236  0.61849155  0.53029962     0.85600
O351        O  0.36164061  0.60214117  0.52498221    -0.78500
O352        O  0.36790392  0.65539365  0.55655409    -0.88700
C353        C  0.40910279  0.55590875  0.45399059     0.85200
O354        O  0.40969875  0.37205877  0.49810832    -0.66900
O355        O  0.08960083  0.64643584  0.44232371    -0.86200
C356        C  0.39687285  0.35144764  0.46939484     0.86000
C357        C  0.34422810  0.61936733  0.54827436     1.07600
H358        H  0.48754672  0.65327656  0.44675733     0.39400
O359        O  0.49245917  0.64107636  0.46906666    -1.08900
O360        O  0.05827961  0.65124895  0.53294983    -0.65500
Ni361      Ni  0.03207031  0.34837765  0.50252916     1.26300
O362        O  0.39999061  0.65204753  0.46629953    -0.65800
O363        O  0.09685548  0.36694321  0.47340720    -0.78100
C364        C  0.04881227  0.41365081  0.54535357     0.85400
O365        O  0.06776104  0.38902425  0.53681219    -0.65200
Ni366      Ni  0.02179072  0.60451799  0.45505192     1.27400
Ni367      Ni  0.42624997  0.62122329  0.49620201     1.26100
H368        H  0.47070132  0.64935272  0.55204388     0.39900
C369        C  0.20103423  0.38751128  0.08670850    -0.12400
C370        C  0.16190751  0.37206969  0.06744022    -0.14000
C371        C  0.37836473  0.52371460  0.06584060    -0.12400
C372        C  0.35634831  0.49639193  0.08600912    -0.14000
C373        C  0.37709207  0.36628157  0.05983671    -0.12400
C374        C  0.35963122  0.38025007  0.08350156    -0.14000
C375        C  0.36273602  0.53404815  0.16156333    -0.12500
C376        C  0.36606186  0.49815199  0.16844990     0.09700
C377        C  0.40326519  0.49673577  0.19481453    -0.12500
C378        C  0.43680444  0.53059050  0.21362500    -0.12500
C379        C  0.43314551  0.56640623  0.20687183     0.09700
C380        C  0.39624264  0.56787123  0.18035465    -0.12500
H381        H  0.33382370  0.53589334  0.14182707     0.13600
H382        H  0.40718023  0.46959454  0.20036102     0.13600
H383        H  0.46515726  0.52874398  0.23383025     0.13600
H384        H  0.39198568  0.59492874  0.17503762     0.13600
C385        C  0.34435042  0.35594574  0.19572329    -0.12500
C386        C  0.36918743  0.38116915  0.16645008     0.09700
C387        C  0.42392316  0.38981423  0.15804398    -0.12500
C388        C  0.45330995  0.37342368  0.17858721    -0.12500
C389        C  0.42857538  0.34836173  0.20801421     0.09700
C390        C  0.37349246  0.67256508  0.21593448    -0.12500
H391        H  0.30220562  0.68227605  0.20262354     0.13600
H392        H  0.44421899  0.40980549  0.13596769     0.13600
H393        H  0.49565844  0.38090478  0.17198568     0.13600
H394        H  0.35307038  0.65251314  0.23793198     0.13600
C395        C  0.16230504  0.34391516  0.16178375    -0.12500
C396        C  0.19831581  0.38293275  0.16873058     0.09700
C397        C  0.18430333  0.40415468  0.19520644    -0.12500
C398        C  0.13477991  0.38682770  0.21407447    -0.12500
C399        C  0.09905742  0.34765045  0.20744350     0.09700
C400        C  0.11300587  0.32647688  0.18087725    -0.12500
H401        H  0.17249867  0.32690909  0.14158712     0.13600
H402        H  0.21116682  0.43433286  0.20072869     0.13600
H403        H  0.12455738  0.40384681  0.23423689     0.13600
H404        H  0.08660644  0.62945170  0.17574223     0.13600
C405        C  0.20123804  0.38683526  0.41075301    -0.12400
C406        C  0.16224700  0.37114561  0.43011420    -0.14000
C407        C  0.35650112  0.49540570  0.41221446    -0.12400
C408        C  0.37787770  0.52287269  0.43213717    -0.14000
C409        C  0.37733859  0.36580866  0.43870359    -0.12400
C410        C  0.35946623  0.37919432  0.41465859    -0.14000
C411        C  0.42453891  0.51933885  0.33766335    -0.12500
C412        C  0.36873071  0.49801610  0.33034078     0.09700
C413        C  0.34406520  0.51110022  0.30271361    -0.12500
C414        C  0.37458506  0.54515418  0.28293209    -0.12500
C415        C  0.43069078  0.56605215  0.28970901     0.09700
C416        C  0.45522822  0.55312999  0.31756439    -0.12500
H417        H  0.44447218  0.50952629  0.35871601     0.13600
H418        H  0.30108427  0.49525800  0.29682071     0.13600
H419        H  0.35449785  0.55507171  0.26207231     0.13600
H420        H  0.49829186  0.56880629  0.32329413     0.13600
C421        C  0.36419511  0.34215524  0.33826911    -0.12500
C422        C  0.36923822  0.38043834  0.33156673     0.09700
C423        C  0.40633424  0.40318991  0.30493664    -0.12500
C424        C  0.43774619  0.38793954  0.28529305    -0.12500
C425        C  0.43184072  0.34938196  0.29144837     0.09700
C426        C  0.39553472  0.66024617  0.31847107    -0.12500
H427        H  0.33566074  0.65732114  0.35846205     0.13600
H428        H  0.41143142  0.43294224  0.29960686     0.13600
H429        H  0.46607140  0.40600890  0.26485139     0.13600
H430        H  0.39007011  0.63035927  0.32347286     0.13600
C431        C  0.14561584  0.33743823  0.28289869    -0.12500
C432        C  0.09987302  0.34557804  0.28994223     0.09700
C433        C  0.10404911  0.37362912  0.31646120    -0.12500
C434        C  0.15309254  0.39342951  0.33530911    -0.12500
C435        C  0.19884733  0.38528745  0.32831014     0.09700
C436        C  0.19477001  0.35739466  0.30162664    -0.12500
H437        H  0.14362393  0.64931818  0.26252013     0.13600
H438        H  0.06973462  0.38089538  0.32195009     0.13600
H439        H  0.15533239  0.41520309  0.35541096     0.13600
H440        H  0.22920090  0.35033046  0.29593967     0.13600
C441        C  0.10237779  0.47487686  0.91060933    -0.12400
C442        C  0.08045399  0.44748233  0.93056259    -0.14000
C443        C  0.25594926  0.58544353  0.91078284    -0.12400
C444        C  0.29506605  0.60125624  0.92987358    -0.14000
C445        C  0.09720462  0.59042703  0.91309902    -0.12400
C446        C  0.07975744  0.60439055  0.93680716    -0.14000
C447        C  0.30694287  0.58070785  0.83746699    -0.12500
C448        C  0.26026832  0.58685922  0.82825420     0.09700
C449        C  0.26329871  0.61201066  0.79903690    -0.12500
C450        C  0.31237243  0.63157038  0.78024011    -0.11500
C451        C  0.35898035  0.62526997  0.78942497     0.09700
C452        C  0.35585185  0.60008045  0.81858125    -0.12500
H453        H  0.30558630  0.56065359  0.85921311     0.13600
H454        H  0.22810309  0.61713860  0.79110954     0.13600
H455        H  0.31375048  0.65134001  0.75821504     0.13600
H456        H  0.39083784  0.59463262  0.82632136     0.13600
C457        C  0.11640296  0.62264276  0.80847007    -0.12500
C458        C  0.08954141  0.58989758  0.83075613     0.09700
C459        C  0.03252484  0.57341591  0.83285274    -0.12500
C460        C  0.00255825  0.58946309  0.81270229    -0.12500
C461        C  0.02934259  0.62219647  0.79040086     0.09700
C462        C  0.08643446  0.63878984  0.78840194    -0.12500
H463        H  0.16036910  0.63603847  0.80704840     0.13600
H464        H  0.01131641  0.54780024  0.84967629     0.13600
H465        H  0.95860144  0.57559735  0.81363553     0.13600
H466        H  0.10759978  0.66409204  0.77119063     0.13600
C467        C  0.05423582  0.47359604  0.80272027    -0.12500
C468        C  0.09271352  0.47295246  0.82841726     0.09700
C469        C  0.09768249  0.43753386  0.83489415    -0.12500
C470        C  0.06436653  0.40337181  0.81642369    -0.12500
C471        C  0.02595797  0.40403722  0.79070055     0.09700
C472        C  0.02091120  0.43942299  0.78423561    -0.12500
H473        H  0.04917512  0.50037336  0.79747257     0.13600
H474        H  0.12757464  0.43632471  0.85416240     0.13600
H475        H  0.06979066  0.37668793  0.82139328     0.13600
H476        H  0.49175975  0.44065111  0.76435289     0.13600
C477        C  0.08061142  0.44694097  0.56670154    -0.12400
C478        C  0.10221020  0.47468227  0.58626246    -0.14000
C479        C  0.25653072  0.58138719  0.58660109    -0.12400
C480        C  0.29565151  0.59694337  0.56754690    -0.14000
C481        C  0.08061201  0.60439153  0.56119845    -0.12400
C482        C  0.09860273  0.59098799  0.58515148    -0.14000
C483        C  0.03605328  0.44991954  0.65959148    -0.12500
C484        C  0.09125254  0.47214206  0.66803770     0.09700
C485        C  0.11541427  0.45995292  0.69659031    -0.12500
C486        C  0.08505821  0.42572140  0.71605840    -0.12500
C487        C  0.02950147  0.40394797  0.70813504     0.09700
C488        C  0.00551073  0.41598969  0.67937909    -0.12500
H489        H  0.01641127  0.45912253  0.63789648     0.13600
H490        H  0.15790609  0.47651869  0.70336976     0.13600
H491        H  0.10483734  0.41637949  0.73755411     0.13600
H492        H  0.46294163  0.39953814  0.67270877     0.13600
C493        C  0.32574332  0.58289062  0.71387013    -0.12500
C494        C  0.36105703  0.62213334  0.70669476     0.09700
C495        C  0.34688768  0.64259890  0.67943090    -0.12500
C496        C  0.29747592  0.62469588  0.66059075    -0.12500
C497        C  0.26154424  0.58580006  0.66831998     0.09700
C498        C  0.27608049  0.56504682  0.69516627    -0.12500
H499        H  0.33617099  0.56634778  0.73455061     0.13600
H500        H  0.37321808  0.67281285  0.67354523     0.13600
H501        H  0.28696368  0.64139281  0.64011512     0.13600
H502        H  0.24942035  0.53496071  0.70128536     0.13600
C503        C  0.05657035  0.56788207  0.69593513    -0.12500
C504        C  0.09225753  0.59011985  0.66845270     0.09700
C505        C  0.09660580  0.62812663  0.66117196    -0.12500
C506        C  0.06519614  0.64342563  0.68072904    -0.12500
C507        C  0.02929055  0.62110564  0.70806460     0.09700
C508        C  0.02491088  0.58306895  0.71529636    -0.12500
H509        H  0.05217923  0.53838221  0.70180410     0.13600
H510        H  0.12460647  0.64609416  0.64054317     0.13600
H511        H  0.06978689  0.67300011  0.67504906     0.13600
H512        H  0.99688302  0.56506272  0.73588940     0.13600
C513        C  0.15309651  0.88246823  0.59245064     0.46300
H514        H  0.15336947  0.88249707  0.56198820    -0.02700
C515        C  0.15248908  0.88220394  0.66381389     0.46400
H516        H  0.15219448  0.88214917  0.69421978    -0.02700
C517        C  0.12528908  0.84192512  0.60913905    -0.16400
C518        C  0.20937859  0.89947327  0.60938521    -0.16200
C519        C  0.12401954  0.90598710  0.60892187    -0.16500
C520        C  0.12364437  0.84120079  0.64659364    -0.16500
C521        C  0.21033312  0.90009495  0.64684428    -0.16100
C522        C  0.12294580  0.90593754  0.64651636    -0.16400
C523        C  0.15141194  0.88362098  0.83369411     0.46300
H524        H  0.15045547  0.88413978  0.80330310    -0.02700
C525        C  0.15281858  0.88236341  0.90501043     0.46400
H526        H  0.15328030  0.88187515  0.93546685    -0.02700
C527        C  0.12078889  0.90579693  0.85183104    -0.16400
C528        C  0.12454221  0.84196357  0.85022310    -0.16200
C529        C  0.20948198  0.90187212  0.85037225    -0.16500
C530        C  0.12184456  0.90499504  0.88923882    -0.16500
C531        C  0.12666724  0.84203473  0.88774932    -0.16100
C532        C  0.20897988  0.90095136  0.88794775    -0.16400
C533        C  0.96836534  0.99468743  0.71315135     0.46300
H534        H  0.96904963  0.99482753  0.68274672    -0.02700
C535        C  0.96713299  0.99402850  0.78451742     0.46400
H536        H  0.96705972  0.99385596  0.81492478    -0.02700
C537        C  0.99630268  0.70244108  0.73039733    -0.16400
C538        C  0.41058428  0.97600076  0.72955531    -0.16200
C539        C  0.99841844  0.97152937  0.73022581    -0.16500
C540        C  0.99540419  0.70211843  0.76804509    -0.16500
C541        C  0.40985602  0.97615659  0.76720836    -0.16100
C542        C  0.99758336  0.97121925  0.76778172    -0.16400
C543        C  0.30808062  0.75448283  0.33469248     0.46300
H544        H  0.30950689  0.75463643  0.30430455    -0.02700
C545        C  0.30502429  0.75430352  0.40596347     0.46400
H546        H  0.30387473  0.75428738  0.43641246    -0.02700
C547        C  0.33705813  0.73075462  0.35273920    -0.16400
C548        C  0.33642466  0.79557687  0.35186343    -0.16200
C549        C  0.24948415  0.73698005  0.35076609    -0.16500
C550        C  0.33456040  0.73066055  0.39026798    -0.16500
C551        C  0.33364383  0.79489067  0.38929744    -0.16100
C552        C  0.24908687  0.73736029  0.38832328    -0.16400
C553        C  0.30487376  0.75542566  0.09196610     0.46300
H554        H  0.30398866  0.75582497  0.06151858    -0.02700
C555        C  0.30707755  0.75436813  0.16325261     0.46400
H556        H  0.30793648  0.75383873  0.19364541    -0.02700
C557        C  0.33129924  0.79589915  0.10903609    -0.16400
C558        C  0.24883533  0.73667273  0.10930055    -0.16200
C559        C  0.33625495  0.73292966  0.10760797    -0.16500
C560        C  0.33362829  0.79601921  0.14659828    -0.16500
C561        C  0.24893563  0.73545606  0.14676558    -0.16100
C562        C  0.33823332  0.73242894  0.14511238    -0.16400
C563        C  0.49148004  0.97640489  0.21325645     0.46300
H564        H  0.49131544  0.97688113  0.18285109    -0.02700
C565        C  0.49177268  0.97537163  0.28458888     0.46400
H566        H  0.49178699  0.97494734  0.31499482    -0.02700
C567        C  0.46392069  0.93490663  0.22969183    -0.16400
C568        C  0.04902046  0.99488230  0.23004352    -0.16200
C569        C  0.46043977  0.99870198  0.23055800    -0.16500
C570        C  0.46370790  0.93442816  0.26737534    -0.16500
C571        C  0.04925696  0.99415897  0.26763956    -0.16100
C572        C  0.46094989  0.99838177  0.26824691    -0.16400
O573        O  0.45557322  0.89392772  0.03228115    -0.80000
O574        O  0.06786482  0.72280305  0.96032558    -0.64700
O575        O  0.49223794  0.97514865  0.02840799    -1.11300
C576        C  0.34389517  0.95598676  0.94952742     1.06900
O577        O  0.00340181  0.74459655  0.96405589    -0.77900
O578        O  0.41083262  0.70713215  0.00088134    -0.65500
Ni579      Ni  0.02159032  0.93858881  0.04287899     1.34900
C580        C  0.39699065  0.68568825  0.02912352     0.85600
O581        O  0.09704513  0.70050898  0.02353471    -0.78500
O582        O  0.08915726  0.98052077  0.05596945    -0.88700
C583        C  0.04944693  0.74793710  0.95260045     0.85200
O584        O  0.04873589  0.93181320  0.99642943    -0.66900
O585        O  0.36825461  0.99217427  0.94174869    -0.86200
C586        C  0.06079335  0.95229102  0.96752906     0.86000
C587        C  0.11338297  0.68315452  0.04763490     1.07600
H588        H  0.46994380  0.98455533  0.94548682     0.39400
O589        O  0.46547761  0.99662105  0.96785333    -1.08900
O590        O  0.39971874  0.98622701  0.03175302    -0.65500
Ni591      Ni  0.42577066  0.95579894  0.00128693     1.26300
O592        O  0.05714343  0.98478500  0.96436280    -0.65800
O593        O  0.36095227  0.93783893  0.97238656    -0.78100
C594        C  0.40917245  0.89003790  0.04353988     0.85400
O595        O  0.39010283  0.91479467  0.03549733    -0.65200
Ni596      Ni  0.43668406  0.70032188  0.95407919     1.27400
Ni597      Ni  0.03197421  0.68234600  0.99474877     1.26100
H598        H  0.48756093  0.98741428  0.05058327     0.39900
O599        O  0.00166856  0.74298797  0.53542260    -0.80000
O600        O  0.39050165  0.91430019  0.46169453    -0.64700
O601        O  0.46582241  0.99507177  0.52989138    -1.11300
C602        C  0.11380162  0.68257675  0.45016778     1.06900
O603        O  0.45549548  0.89301698  0.46508959    -0.77900
O604        O  0.04800552  0.93079287  0.50174294    -0.65500
Ni605      Ni  0.43574379  0.69768105  0.54466247     1.34900
C606        C  0.06107634  0.95173179  0.53024022     0.85600
O607        O  0.36164421  0.93558979  0.52495494    -0.78500
O608        O  0.36813563  0.98878796  0.55672781    -0.88700
C609        C  0.40904958  0.88927931  0.45399697     0.85200
O610        O  0.40988200  0.70540714  0.49801314    -0.66900
O611        O  0.08957236  0.97976492  0.44230735    -0.86200
C612        C  0.39696519  0.68474720  0.46933409     0.86000
C613        C  0.34433939  0.95280193  0.54833143     1.07600
H614        H  0.48755263  0.98664734  0.44674162     0.39400
O615        O  0.49246119  0.97443170  0.46904347    -1.08900
O616        O  0.05829950  0.98452055  0.53290511    -0.65500
Ni617      Ni  0.03204403  0.68169865  0.50258438     1.26300
O618        O  0.40005987  0.98545732  0.46629320    -0.65800
O619        O  0.09690932  0.70025063  0.47351748    -0.78100
C620        C  0.04873523  0.74698638  0.54539174     0.85400
O621        O  0.06767199  0.72235218  0.53685734    -0.65200
Ni622      Ni  0.02171508  0.93785994  0.45499075     1.27400
Ni623      Ni  0.42626316  0.95460600  0.49618815     1.26100
H624        H  0.47077226  0.98269185  0.55201876     0.39900
C625        C  0.20094840  0.72079149  0.08679009    -0.12400
C626        C  0.16176568  0.70531529  0.06757299    -0.14000
C627        C  0.37848335  0.85710940  0.06591430    -0.12400
C628        C  0.35640095  0.82975155  0.08602860    -0.14000
C629        C  0.37707881  0.69959154  0.05982484    -0.12400
C630        C  0.35959706  0.71358831  0.08346644    -0.14000
C631        C  0.36284167  0.86743837  0.16156729    -0.12500
C632        C  0.36614955  0.83153329  0.16844551     0.09700
C633        C  0.40337129  0.83011682  0.19479861    -0.12500
C634        C  0.43691338  0.86397029  0.21361877    -0.12500
C635        C  0.43325071  0.89979025  0.20688355     0.09700
C636        C  0.39635599  0.90125970  0.18036300    -0.12500
H637        H  0.33392556  0.86929097  0.14183863     0.13600
H638        H  0.40728481  0.80297358  0.20033743     0.13600
H639        H  0.46526501  0.86211730  0.23382166     0.13600
H640        H  0.39209846  0.92831835  0.17505401     0.13600
C641        C  0.34435996  0.68936759  0.19573064    -0.12500
C642        C  0.36917746  0.71453923  0.16642239     0.09700
C643        C  0.42388802  0.72314397  0.15798275    -0.12500
C644        C  0.45326797  0.70674927  0.17852251    -0.12500
C645        C  0.42854621  0.68172316  0.20797485     0.09700
C646        C  0.37359879  0.00595436  0.21597112    -0.12500
H647        H  0.30231214  0.01563169  0.20260184     0.13600
H648        H  0.44416998  0.74310683  0.13588437     0.13600
H649        H  0.49560077  0.71419851  0.17189782     0.13600
H650        H  0.35312879  0.98584555  0.23791987     0.13600
C651        C  0.16248973  0.67721592  0.16194037    -0.12500
C652        C  0.19835737  0.71629057  0.16878860     0.09700
C653        C  0.18419880  0.73754695  0.19515192    -0.12500
C654        C  0.13466384  0.72019332  0.21400330    -0.12500
C655        C  0.09907685  0.68096592  0.20745812     0.09700
C656        C  0.11317806  0.65975430  0.18101421    -0.12500
H657        H  0.17279995  0.66018986  0.14182714     0.13600
H658        H  0.21095577  0.76776673  0.20059711     0.13600
H659        H  0.12433008  0.73722621  0.23409235     0.13600
H660        H  0.08574086  0.96315777  0.17516784     0.13600
C661        C  0.20130361  0.72017069  0.41082109    -0.12400
C662        C  0.16230425  0.70450309  0.43018583    -0.14000
C663        C  0.35646907  0.82876496  0.41224351    -0.12400
C664        C  0.37781102  0.85623736  0.43216190    -0.14000
C665        C  0.37748059  0.69912934  0.43863361    -0.12400
C666        C  0.35960887  0.71256734  0.41463137    -0.14000
C667        C  0.42457859  0.85260804  0.33761882    -0.12500
C668        C  0.36873520  0.83136230  0.33036655     0.09700
C669        C  0.34405740  0.84448401  0.30277561    -0.12500
C670        C  0.37459683  0.87852065  0.28297719    -0.12500
C671        C  0.43072117  0.89936788  0.28971435     0.09700
C672        C  0.45528266  0.88638581  0.31750901    -0.12500
H673        H  0.44452047  0.84275028  0.35863058     0.13600
H674        H  0.30105492  0.82868528  0.29692535     0.13600
H675        H  0.35450784  0.88847435  0.26214709     0.13600
H676        H  0.49836889  0.90201461  0.32319185     0.13600
C677        C  0.36433463  0.67557451  0.33829801    -0.12500
C678        C  0.36926019  0.71382033  0.33154144     0.09700
C679        C  0.40621022  0.73654016  0.30482695    -0.12500
C680        C  0.43763733  0.72130953  0.28517989    -0.12500
C681        C  0.43187519  0.68279517  0.29140644     0.09700
C682        C  0.39533124  0.99349588  0.31843561    -0.12500
H683        H  0.33528932  0.99050726  0.35832525     0.13600
H684        H  0.41120188  0.76626002  0.29944354     0.13600
H685        H  0.46586289  0.73936026  0.26468178     0.13600
H686        H  0.38978294  0.96357991  0.32336612     0.13600
C687        C  0.14580069  0.67087951  0.28283733    -0.12500
C688        C  0.10000097  0.67893478  0.28993447     0.09700
C689        C  0.10411426  0.70692398  0.31650320    -0.12500
C690        C  0.15313232  0.72672179  0.33537285    -0.12500
C691        C  0.19892290  0.71863742  0.32834519     0.09700
C692        C  0.19493241  0.69083778  0.30158447    -0.12500
H693        H  0.14322552  0.98239587  0.26282859     0.13600
H694        H  0.06976153  0.71413577  0.32202554     0.13600
H695        H  0.15532110  0.74844503  0.35551574     0.13600
H696        H  0.22940716  0.68383573  0.29585947     0.13600
C697        C  0.10237886  0.80812921  0.91051568    -0.12400
C698        C  0.08051918  0.78073036  0.93046429    -0.14000
C699        C  0.25592456  0.91864992  0.91091346    -0.12400
C700        C  0.29498079  0.93447300  0.93006261    -0.14000
C701        C  0.09734516  0.92381914  0.91309960    -0.12400
C702        C  0.07991667  0.93782642  0.93678537    -0.14000
C703        C  0.30709877  0.91407321  0.83755750    -0.12500
C704        C  0.26036783  0.92015420  0.82833707     0.09700
C705        C  0.26331709  0.94524046  0.79908181    -0.12500
C706        C  0.31235376  0.96480599  0.78024916    -0.11500
C707        C  0.35902271  0.95858513  0.78943296     0.09700
C708        C  0.35597763  0.93344678  0.81862443    -0.12500
H709        H  0.30580757  0.89406746  0.85933329     0.13600
H710        H  0.22808124  0.95032918  0.79116252     0.13600
H711        H  0.31365973  0.98454057  0.75821087     0.13600
H712        H  0.39101078  0.92804624  0.82635839     0.13600
C713        C  0.11637943  0.95600414  0.80858687    -0.12500
C714        C  0.08957064  0.92316153  0.83076305     0.09700
C715        C  0.03253669  0.90649440  0.83272318    -0.12500
C716        C  0.00250035  0.92249205  0.81257668    -0.12500
C717        C  0.02924295  0.95534953  0.79041191     0.09700
C718        C  0.08634327  0.97209722  0.78852238    -0.12500
H719        H  0.16035466  0.96950329  0.80724040     0.13600
H720        H  0.01137874  0.88078842  0.84944802     0.13600
H721        H  0.95853666  0.90851999  0.81342091     0.13600
H722        H  0.10746403  0.99748040  0.77139686     0.13600
C723        C  0.05403324  0.80692047  0.80280326    -0.12500
C724        C  0.09270062  0.80631611  0.82836583     0.09700
C725        C  0.09779099  0.77093222  0.83476271    -0.12500
C726        C  0.06439885  0.73675179  0.81636225    -0.12500
C727        C  0.02580687  0.73736963  0.79077288     0.09700
C728        C  0.02063371  0.77272377  0.78437704    -0.12500
H729        H  0.04889423  0.83367955  0.79761774     0.13600
H730        H  0.12782497  0.76976443  0.85393095     0.13600
H731        H  0.06992595  0.71009549  0.82125980     0.13600
H732        H  0.49125676  0.77393508  0.76467810     0.13600
C733        C  0.08061076  0.78029988  0.56668278    -0.12400
C734        C  0.10231355  0.80803120  0.58623607    -0.14000
C735        C  0.25655791  0.91486022  0.58655245    -0.12400
C736        C  0.29571693  0.93040772  0.56754290    -0.14000
C737        C  0.08049463  0.93759087  0.56113563    -0.12400
C738        C  0.09847381  0.92420180  0.58510995    -0.14000
C739        C  0.03627617  0.78321077  0.65951021    -0.12500
C740        C  0.09141283  0.80552285  0.66805729     0.09700
C741        C  0.11544536  0.79350108  0.69680480    -0.12500
C742        C  0.08506353  0.75929587  0.71630297    -0.12500
C743        C  0.02958090  0.73739414  0.70823206     0.09700
C744        C  0.00570027  0.74931860  0.67933389    -0.12500
H745        H  0.01669718  0.79231179  0.63770401     0.13600
H746        H  0.15787048  0.81016114  0.70370103     0.13600
H747        H  0.10478592  0.75005872  0.73790989     0.13600
H748        H  0.46317889  0.73280209  0.67260888     0.13600
C749        C  0.32589707  0.91628761  0.71371787    -0.12500
C750        C  0.36108777  0.95557980  0.70667261     0.09700
C751        C  0.34683557  0.97611137  0.67950835    -0.12500
C752        C  0.29745030  0.95820092  0.66063266    -0.12500
C753        C  0.26162942  0.91924815  0.66824884     0.09700
C754        C  0.27626686  0.89843907  0.69498434    -0.12500
H755        H  0.33640030  0.89970477  0.73431858     0.13600
H756        H  0.37308293  0.00636713  0.67372352     0.13600
H757        H  0.28686767  0.97492954  0.64022588     0.13600
H758        H  0.24970063  0.86830634  0.70099959     0.13600
C759        C  0.05651131  0.90103373  0.69591749    -0.12500
C760        C  0.09216582  0.92331014  0.66843457     0.09700
C761        C  0.09646737  0.96130402  0.66118172    -0.12500
C762        C  0.06503897  0.97655970  0.68076144    -0.12500
C763        C  0.02915569  0.95420907  0.70809186     0.09700
C764        C  0.02482890  0.91618138  0.71530784    -0.12500
H765        H  0.05217048  0.87154068  0.70176526     0.13600
H766        H  0.12444910  0.97929623  0.64055627     0.13600
H767        H  0.06959809  0.00612971  0.67509911     0.13600
H768        H  0.99682204  0.89815260  0.73589924     0.13600
C769        C  0.65302074  0.21579088  0.59245631     0.46300
H770        H  0.65330409  0.21581751  0.56199462    -0.02700
C771        C  0.65237189  0.21552483  0.66381995     0.46400
H772        H  0.65206237  0.21546688  0.69422603    -0.02700
C773        C  0.62510829  0.17525343  0.60914491    -0.16400
C774        C  0.70930547  0.23272221  0.60939842    -0.16200
C775        C  0.62403890  0.23938241  0.60892159    -0.16500
C776        C  0.62343866  0.17453248  0.64659422    -0.16500
C777        C  0.71022923  0.23333992  0.64686251    -0.16100
C778        C  0.62294465  0.23933322  0.64651478    -0.16400
C779        C  0.65148115  0.21702632  0.83367782     0.46300
H780        H  0.65059938  0.21758463  0.80328629    -0.02700
C781        C  0.65273711  0.21567307  0.90499426     0.46400
H782        H  0.65314418  0.21514978  0.93545072    -0.02700
C783        C  0.62075233  0.23913773  0.85180558    -0.16400
C784        C  0.62467528  0.17533555  0.85016008    -0.16200
C785        C  0.70949892  0.23531360  0.85041006    -0.16500
C786        C  0.62170689  0.23826301  0.88921776    -0.16500
C787        C  0.62670303  0.17536126  0.88769082    -0.16100
C788        C  0.70892574  0.23434044  0.88797944    -0.16400
C789        C  0.46822895  0.32804575  0.71311236     0.46300
H790        H  0.46887971  0.32819708  0.68270700    -0.02700
C791        C  0.46708516  0.32736099  0.78447984     0.46400
H792        H  0.46702985  0.32717268  0.81488709    -0.02700
C793        C  0.49644447  0.03569294  0.73035967    -0.16400
C794        C  0.91047679  0.30928327  0.72958022    -0.16200
C795        C  0.49837141  0.30493032  0.73015511    -0.16500
C796        C  0.49560021  0.03542334  0.76800663    -0.16500
C797        C  0.90981196  0.30946104  0.76723166    -0.16100
C798        C  0.49758597  0.30460842  0.76771290    -0.16400
C799        C  0.80801930  0.08774695  0.33465855     0.46300
H800        H  0.80944288  0.08784589  0.30427078    -0.02700
C801        C  0.80495594  0.08768226  0.40592973     0.46400
H802        H  0.80379570  0.08771589  0.43637744    -0.02700
C803        C  0.83696917  0.06403224  0.35276654    -0.16400
C804        C  0.83637067  0.12886514  0.35177196    -0.16200
C805        C  0.74943451  0.07029613  0.35073178    -0.16500
C806        C  0.83446832  0.06399353  0.39029579    -0.16500
C807        C  0.83359097  0.12824322  0.38920576    -0.16100
C808        C  0.74902764  0.07072555  0.38828206    -0.16400
C809        C  0.80499080  0.08876928  0.09200482     0.46300
H810        H  0.80415457  0.08918681  0.06155665    -0.02700
C811        C  0.80707592  0.08766605  0.16329155     0.46400
H812        H  0.80790280  0.08712852  0.19368515    -0.02700
C813        C  0.83127085  0.12923112  0.10909283    -0.16400
C814        C  0.74893799  0.06994712  0.10929759    -0.16200
C815        C  0.83644219  0.06633787  0.10766847    -0.16500
C816        C  0.83353453  0.12932402  0.14665337    -0.16500
C817        C  0.74896378  0.06869699  0.14676578    -0.16100
C818        C  0.83835630  0.06580859  0.14517102    -0.16400
C819        C  0.99143228  0.30968901  0.21316287     0.46300
H820        H  0.99127247  0.31015109  0.18275672    -0.02700
C821        C  0.99171465  0.30867545  0.28449702     0.46400
H822        H  0.99171494  0.30825397  0.31490252    -0.02700
C823        C  0.96383655  0.26820896  0.22961241    -0.16400
C824        C  0.54902564  0.32807734  0.23002146    -0.16200
C825        C  0.96040367  0.33200739  0.23045096    -0.16500
C826        C  0.96359892  0.26773192  0.26729140    -0.16500
C827        C  0.54925283  0.32736509  0.26761788    -0.16100
C828        C  0.96091980  0.33170261  0.26814067    -0.16400
O829        O  0.95552186  0.22723185  0.03234799    -0.80000
O830        O  0.56787273  0.05616502  0.96034139    -0.64700
O831        O  0.99218376  0.30845682  0.02837471    -1.11300
C832        C  0.84384363  0.28934140  0.94952502     1.06900
O833        O  0.50335321  0.07791314  0.96398868    -0.77900
O834        O  0.91084379  0.04044678  0.00089589    -0.65500
Ni835      Ni  0.52146244  0.27196450  0.04291184     1.34900
C836        C  0.89714448  0.01908828  0.02919790     0.85600
O837        O  0.59713366  0.03393305  0.02355791    -0.78500
O838        O  0.58899344  0.31391962  0.05601272    -0.88700
C839        C  0.54941643  0.08126376  0.95255858     0.85200
O840        O  0.54865125  0.26513618  0.99648447    -0.66900
O841        O  0.86822161  0.32552768  0.94173520    -0.86200
C842        C  0.56056742  0.28550883  0.96751447     0.86000
C843        C  0.61355952  0.01656299  0.04759029     1.07600
H844        H  0.96979067  0.31788334  0.94546387     0.39400
O845        O  0.96537285  0.32994173  0.96784738    -1.08900
O846        O  0.89961675  0.31948818  0.03175307    -0.65500
Ni847      Ni  0.92569872  0.28910623  0.00126913     1.26300
O848        O  0.55686911  0.31797960  0.96426943    -0.65800
O849        O  0.86088156  0.27117741  0.97238084    -0.78100
C850        C  0.90911209  0.22335686  0.04357680     0.85400
O851        O  0.89003583  0.24809465  0.03547499    -0.65200
Ni852      Ni  0.93656414  0.03352777  0.95408253     1.27400
Ni853      Ni  0.53205330  0.01571965  0.99479310     1.26100
H854        H  0.98752336  0.32074532  0.05053981     0.39900
O855        O  0.50180764  0.07630745  0.53532395    -0.80000
O856        O  0.89046631  0.24766714  0.46164974    -0.64700
O857        O  0.96581606  0.32841194  0.52987780    -1.11300
C858        C  0.61375437  0.01589563  0.45009537     1.06900
O859        O  0.95543003  0.22634883  0.46496590    -0.77900
O860        O  0.54795023  0.26415239  0.50179263    -0.65500
Ni861      Ni  0.93585699  0.03105162  0.54473264     1.34900
C862        C  0.56109519  0.28514080  0.53025673     0.85600
O863        O  0.86162883  0.26891057  0.52495140    -0.78500
O864        O  0.86806877  0.32211859  0.55667965    -0.88700
C865        C  0.90900187  0.22265848  0.45387816     0.85200
O866        O  0.90974364  0.03873386  0.49814678    -0.66900
O867        O  0.58960172  0.31309539  0.44235661    -0.86200
C868        C  0.89689436  0.01813036  0.46942766     0.86000
C869        C  0.84429744  0.28611894  0.54831718     1.07600
H870        H  0.98753601  0.31997283  0.44671209     0.39400
O871        O  0.99244624  0.30777015  0.46901954    -1.08900
O872        O  0.55836113  0.31794726  0.53288273    -0.65500
Ni873      Ni  0.53208817  0.01502199  0.50256179     1.26300
O874        O  0.90006250  0.31879193  0.46628212    -0.65800
O875        O  0.59689773  0.03357176  0.47346069    -0.78100
C876        C  0.54882922  0.08029022  0.54537511     0.85400
O877        O  0.56777233  0.05565466  0.53685557    -0.65200
Ni878      Ni  0.52172411  0.27120299  0.45501387     1.27400
Ni879      Ni  0.92625028  0.28794174  0.49617110     1.26100
H880        H  0.97078193  0.31603981  0.55200448     0.39900
C881        C  0.70111115  0.05415804  0.08673818    -0.12400
C882        C  0.66194748  0.03872417  0.06750470    -0.14000
C883        C  0.87840516  0.19045615  0.06598018    -0.12400
C884        C  0.85632880  0.16310604  0.08610485    -0.14000
C885        C  0.87733561  0.03305596  0.05989738    -0.12400
C886        C  0.85986448  0.04704855  0.08354251    -0.14000
C887        C  0.86256193  0.20069238  0.16166096    -0.12500
C888        C  0.86598733  0.16482309  0.16850470     0.09700
C889        C  0.90332942  0.16344257  0.19477536    -0.12500
C890        C  0.93691314  0.19731361  0.21353827    -0.12500
C891        C  0.93315631  0.23310208  0.20682686     0.09700
C892        C  0.89611760  0.23453317  0.18040251    -0.12500
H893        H  0.83355090  0.20250218  0.14198610     0.13600
H894        H  0.90731762  0.13631951  0.20028018     0.13600
H895        H  0.96536422  0.19550078  0.23368409     0.13600
H896        H  0.89179264  0.26157413  0.17512956     0.13600
C897        C  0.84441011  0.02269462  0.19575454    -0.12500
C898        C  0.86928994  0.04792386  0.16649640     0.09700
C899        C  0.92403233  0.05657181  0.15811477    -0.12500
C900        C  0.95337953  0.04016008  0.17866538    -0.12500
C901        C  0.92858600  0.01507183  0.20806434     0.09700
C902        C  0.87345210  0.33912312  0.21583938    -0.12500
H903        H  0.80209541  0.34872859  0.20247081     0.13600
H904        H  0.94435757  0.07657446  0.13605229     0.13600
H905        H  0.99573490  0.04763631  0.17208793     0.13600
H906        H  0.85300318  0.31897422  0.23776650     0.13600
C907        C  0.66197210  0.01072300  0.16157332    -0.12500
C908        C  0.69834050  0.04959230  0.16876995     0.09700
C909        C  0.68468158  0.07072945  0.19551777    -0.12500
C910        C  0.63515270  0.05347800  0.21438894    -0.12500
C911        C  0.59909701  0.01442820  0.20752454     0.09700
C912        C  0.61267853  0.99335576  0.18067281    -0.12500
H913        H  0.67188643  0.99376088  0.14118583     0.13600
H914        H  0.71181601  0.10079692  0.20124378     0.13600
H915        H  0.62519655  0.07045462  0.23473536     0.13600
H916        H  0.58641520  0.29616131  0.17563731     0.13600
C917        C  0.70123358  0.05353296  0.41075734    -0.12400
C918        C  0.66223008  0.03783020  0.43010320    -0.14000
C919        C  0.85639461  0.16216418  0.41209985    -0.12400
C920        C  0.87773907  0.18965294  0.43200232    -0.14000
C921        C  0.87735073  0.03251220  0.43874880    -0.12400
C922        C  0.85947891  0.04591305  0.41471127    -0.14000
C923        C  0.92447552  0.18591014  0.33751767    -0.12500
C924        C  0.86865364  0.16462301  0.33023652     0.09700
C925        C  0.84396731  0.17771154  0.30262395    -0.12500
C926        C  0.87448345  0.21177069  0.28284480    -0.12500
C927        C  0.93059388  0.23266601  0.28962161     0.09700
C928        C  0.95515382  0.21970435  0.31742845    -0.12500
H929        H  0.94442065  0.17607799  0.35854705     0.13600
H930        H  0.80097680  0.16187978  0.29675226     0.13600
H931        H  0.85438877  0.22170375  0.26200201     0.13600
H932        H  0.99822607  0.23536375  0.32313751     0.13600
C933        C  0.86410694  0.00879476  0.33829481    -0.12500
C934        C  0.86918146  0.04708583  0.33160641     0.09700
C935        C  0.90626740  0.06983962  0.30497561    -0.12500
C936        C  0.93768284  0.05459683  0.28533573    -0.12500
C937        C  0.93177399  0.01603918  0.29148727     0.09700
C938        C  0.89533327  0.32683565  0.31835139    -0.12500
H939        H  0.83536876  0.32387309  0.35828850     0.13600
H940        H  0.91136397  0.09959254  0.29964893     0.13600
H941        H  0.96601483  0.07267268  0.26490065     0.13600
H942        H  0.88979007  0.29692210  0.32329113     0.13600
C943        C  0.64552727  0.00400231  0.28305916    -0.12500
C944        C  0.59988744  0.01228367  0.29002509     0.09700
C945        C  0.60417727  0.04048498  0.31640899    -0.12500
C946        C  0.65323603  0.06027293  0.33523296    -0.12500
C947        C  0.69887173  0.05196651  0.32833212     0.09700
C948        C  0.69469786  0.02394756  0.30176147    -0.12500
H949        H  0.64338813  0.31578213  0.26273115     0.13600
H950        H  0.56994199  0.04786837  0.32180840     0.13600
H951        H  0.65558126  0.08215191  0.35524793     0.13600
H952        H  0.72906070  0.01678172  0.29614741     0.13600
C953        C  0.60237890  0.14142874  0.91043015    -0.12400
C954        C  0.58048813  0.11404090  0.93039205    -0.14000
C955        C  0.75583525  0.25202350  0.91096571    -0.12400
C956        C  0.79491247  0.26784376  0.93008898    -0.14000
C957        C  0.59708256  0.25699430  0.91308877    -0.12400
C958        C  0.57961680  0.27096831  0.93678330    -0.14000
C959        C  0.80708076  0.24746403  0.83760680    -0.12500
C960        C  0.76041177  0.25363387  0.82842241     0.09700
C961        C  0.76342459  0.27879284  0.79921875    -0.12500
C962        C  0.81244779  0.29830956  0.78036987    -0.11500
C963        C  0.85903176  0.29196465  0.78949198     0.09700
C964        C  0.85594733  0.26678969  0.81865701    -0.12500
H965        H  0.80574095  0.22741420  0.85935351     0.13600
H966        H  0.72823760  0.28393626  0.79131788     0.13600
H967        H  0.81380081  0.31807759  0.75834963     0.13600
H968        H  0.89093018  0.26132244  0.82635735     0.13600
C969        C  0.61637515  0.28919468  0.80831539    -0.12500
C970        C  0.58957648  0.25654004  0.83072236     0.09700
C971        C  0.53256680  0.24008691  0.83290039    -0.12500
C972        C  0.50255140  0.25608139  0.81273272    -0.12500
C973        C  0.52927472  0.28873809  0.79032934     0.09700
C974        C  0.58635832  0.30529324  0.78823359    -0.12500
H975        H  0.66033083  0.30257792  0.80682366     0.13600
H976        H  0.51139675  0.21453060  0.84980383     0.13600
H977        H  0.45860053  0.24223177  0.81373986     0.13600
H978        H  0.60748165  0.33053596  0.77094410     0.13600
C979        C  0.55433583  0.14027973  0.80265813    -0.12500
C980        C  0.59297253  0.13969436  0.82825167     0.09700
C981        C  0.59810946  0.10432425  0.83464954    -0.12500
C982        C  0.56473393  0.07012747  0.81625370    -0.12500
C983        C  0.52609941  0.07071213  0.79067997     0.09700
C984        C  0.52094763  0.10606925  0.78424691    -0.12500
H985        H  0.54917507  0.16702910  0.79746062     0.13600
H986        H  0.62813435  0.10317379  0.85383583     0.13600
H987        H  0.57026775  0.04347683  0.82116793     0.13600
H988        H  0.99165026  0.10723749  0.76446562     0.13600
C989        C  0.58062375  0.11358323  0.56671663    -0.12400
C990        C  0.60222080  0.14133903  0.58625884    -0.14000
C991        C  0.75651405  0.24811557  0.58656749    -0.12400
C992        C  0.79568073  0.26370054  0.56755685    -0.14000
C993        C  0.58055597  0.27103406  0.56115294    -0.12400
C994        C  0.59854722  0.25763549  0.58511113    -0.14000
C995        C  0.53616614  0.11644771  0.65948965    -0.12500
C996        C  0.59128147  0.13883131  0.66804386     0.09700
C997        C  0.61541456  0.12680649  0.69672742    -0.12500
C998        C  0.58514429  0.09254930  0.71618059    -0.12500
C999        C  0.52966408  0.07060897  0.70814286     0.09700
C1000       C  0.50569637  0.08250500  0.67927577    -0.12500
H1001       H  0.51652341  0.12553132  0.63771002     0.13600
H1002       H  0.65783505  0.14350544  0.70360640     0.13600
H1003       H  0.60493660  0.08332077  0.73774985     0.13600
H1004       H  0.96318508  0.06589421  0.67253119     0.13600
C1005       C  0.82565901  0.24958617  0.71386939    -0.12500
C1006       C  0.86094278  0.28883922  0.70672961     0.09700
C1007       C  0.84677999  0.30931622  0.67946914    -0.12500
C1008       C  0.79740074  0.29140419  0.66059307    -0.12500
C1009       C  0.76150501  0.25249096  0.66828407     0.09700
C1010       C  0.77603863  0.23173068  0.69512376    -0.12500
H1011       H  0.83609206  0.23303527  0.73453852     0.13600
H1012       H  0.87309754  0.33953800  0.67360450     0.13600
H1013       H  0.78688628  0.30810436  0.64012130     0.13600
H1014       H  0.74940744  0.20162991  0.70120779     0.13600
C1015       C  0.55650315  0.23445855  0.69589473    -0.12500
C1016       C  0.59217392  0.25672902  0.66841800     0.09700
C1017       C  0.59645051  0.29471443  0.66113569    -0.12500
C1018       C  0.56497237  0.30995999  0.68067640    -0.12500
C1019       C  0.52907837  0.28760950  0.70800078     0.09700
C1020       C  0.52477539  0.24959411  0.71524342    -0.12500
H1021       H  0.55217840  0.20497448  0.70176778     0.13600
H1022       H  0.62444593  0.31270603  0.64051659     0.13600
H1023       H  0.56951318  0.33952339  0.67499899     0.13600
H1024       H  0.49677218  0.23157372  0.73584195     0.13600
C1025       C  0.65306565  0.54914157  0.59249686     0.46300
H1026       H  0.65337224  0.54918973  0.56203488    -0.02700
C1027       C  0.65236466  0.54882571  0.66386086     0.46400
H1028       H  0.65203113  0.54874319  0.69426671    -0.02700
C1029       C  0.62513674  0.50859625  0.60915612    -0.16400
C1030       C  0.70933558  0.56604476  0.60945678    -0.16200
C1031       C  0.62407249  0.57272270  0.60896841    -0.16500
C1032       C  0.62344641  0.50784124  0.64660437    -0.16500
C1033       C  0.71023692  0.56665099  0.64692049    -0.16100
C1034       C  0.62295478  0.57265448  0.64656116    -0.16400
C1035       C  0.65132610  0.55024373  0.83364444     0.46300
H1036       H  0.65034577  0.55073856  0.80325348    -0.02700
C1037       C  0.65283344  0.54907290  0.90496190     0.46400
H1038       H  0.65335522  0.54863371  0.93541856    -0.02700
C1039       C  0.62068226  0.57241115  0.85177948    -0.16400
C1040       C  0.62454746  0.50858766  0.85022631    -0.16200
C1041       C  0.70940380  0.56857143  0.85027725    -0.16500
C1042       C  0.62175807  0.57162545  0.88918755    -0.16500
C1043       C  0.62671812  0.50871483  0.88775811    -0.16100
C1044       C  0.70895562  0.56769584  0.88784702    -0.16400
C1045       C  0.46838709  0.66148484  0.71318132     0.46300
H1046       H  0.46910277  0.66165493  0.68277725    -0.02700
C1047       C  0.46708796  0.66075739  0.78454733     0.46400
H1048       H  0.46698335  0.66055458  0.81495486    -0.02700
C1049       C  0.49628279  0.36898348  0.73031491    -0.16400
C1050       C  0.91055159  0.64263639  0.72953845    -0.16200
C1051       C  0.49858951  0.63842736  0.73024299    -0.16500
C1052       C  0.49549362  0.36870413  0.76796818    -0.16500
C1053       C  0.90981040  0.64279255  0.76718601    -0.16100
C1054       C  0.49772740  0.63808766  0.76779876    -0.16400
C1055       C  0.80801884  0.42113158  0.33468750     0.46300
H1056       H  0.80943726  0.42129431  0.30429913    -0.02700
C1057       C  0.80498242  0.42092567  0.40595876     0.46400
H1058       H  0.80383659  0.42089475  0.43640822    -0.02700
C1059       C  0.83694406  0.39735541  0.35271400    -0.16400
C1060       C  0.83644489  0.46221503  0.35187832    -0.16200
C1061       C  0.74942148  0.40366899  0.35076853    -0.16500
C1062       C  0.83443777  0.39723969  0.39024482    -0.16500
C1063       C  0.83368932  0.46151318  0.38931390    -0.16100
C1064       C  0.74904350  0.40404541  0.38832163    -0.16400
C1065       C  0.80485832  0.42208142  0.09195155     0.46300
H1066       H  0.80399137  0.42246599  0.06150297    -0.02700
C1067       C  0.80701911  0.42103714  0.16323685     0.46400
H1068       H  0.80786228  0.42051240  0.19363009    -0.02700
C1069       C  0.83122254  0.46256166  0.10900046    -0.16400
C1070       C  0.74881724  0.40331696  0.10927190    -0.16200
C1071       C  0.83626295  0.39961838  0.10762593    -0.16500
C1072       C  0.83352395  0.46268825  0.14656540    -0.16500
C1073       C  0.74889197  0.40208884  0.14673895    -0.16100
C1074       C  0.83822060  0.39912078  0.14512612    -0.16400
C1075       C  0.99146440  0.64299674  0.21322332     0.46300
H1076       H  0.99128335  0.64345215  0.18281770    -0.02700
C1077       C  0.99184630  0.64201148  0.28455479     0.46400
H1078       H  0.99189297  0.64160196  0.31496031    -0.02700
C1079       C  0.96384370  0.60152036  0.22968103    -0.16400
C1080       C  0.54898447  0.66145766  0.22992529    -0.16200
C1081       C  0.96048718  0.66534306  0.23052694    -0.16500
C1082       C  0.96368899  0.60106004  0.26736661    -0.16500
C1083       C  0.54929933  0.66079251  0.26752012    -0.16100
C1084       C  0.96105687  0.66505593  0.26822062    -0.16400
O1085       O  0.95540282  0.56054228  0.03219053    -0.80000
O1086       O  0.56770751  0.38944772  0.96026372    -0.64700
O1087       O  0.99205377  0.64176701  0.02833703    -1.11300
C1088       C  0.84396168  0.62273834  0.94930098     1.06900
O1089       O  0.50322217  0.41122891  0.96402190    -0.77900
O1090       O  0.91075381  0.37379057  0.00090966    -0.65500
Ni1091     Ni  0.52141425  0.60518548  0.04284606     1.34900
C1092       C  0.89702525  0.35239892  0.02918893     0.85600
O1093       O  0.59706707  0.36724075  0.02344841    -0.78500
O1094       O  0.58892279  0.64710618  0.05607873    -0.88700
C1095       C  0.54930111  0.41460316  0.95259261     0.85200
O1096       O  0.54874787  0.59846898  0.99643826    -0.66900
O1097       O  0.86830721  0.65895349  0.94162215    -0.86200
C1098       C  0.56067985  0.61888016  0.96749381     0.86000
C1099       C  0.61348565  0.34990628  0.04751843     1.07600
H1100       H  0.96994130  0.65129299  0.94538141     0.39400
O1101       O  0.96544864  0.66331455  0.96776716    -1.08900
O1102       O  0.89943174  0.65276818  0.03156422    -0.65500
Ni1103     Ni  0.92566826  0.62243260  0.00111468     1.26300
O1104       O  0.55696451  0.65134642  0.96428353    -0.65800
O1105       O  0.86098916  0.60451840  0.97210022    -0.78100
C1106       C  0.90896479  0.55663628  0.04338092     0.85400
O1107       O  0.88988143  0.58136443  0.03525257    -0.65200
Ni1108     Ni  0.93657474  0.36695098  0.95410680     1.27400
Ni1109     Ni  0.53193611  0.34900741  0.99472895     1.26100
H1110       H  0.98730687  0.65402844  0.05049488     0.39900
O1111       O  0.50173248  0.40967317  0.53536185    -0.80000
O1112       O  0.89057042  0.58088641  0.46171982    -0.64700
O1113       O  0.96575374  0.66173445  0.52989337    -1.11300
C1114       C  0.61377471  0.34925116  0.45015120     1.06900
O1115       O  0.95561417  0.55966558  0.46519755    -0.77900
O1116       O  0.54801070  0.59746609  0.50181554    -0.65500
Ni1117     Ni  0.93584913  0.36439693  0.54466170     1.34900
C1118       C  0.56107300  0.61842919  0.53029710     0.85600
O1119       O  0.86165058  0.60213480  0.52498910    -0.78500
O1120       O  0.86792581  0.65537933  0.55658335    -0.88700
C1121       C  0.90917409  0.55588784  0.45405625     0.85200
O1122       O  0.90975158  0.37206183  0.49806311    -0.66900
O1123       O  0.58963040  0.64640974  0.44236846    -0.86200
C1124       C  0.89690736  0.35143748  0.46935841     0.86000
C1125       C  0.84425234  0.61935280  0.54830024     1.07600
H1126       H  0.98755080  0.65327714  0.44676057     0.39400
O1127       O  0.99247038  0.64108400  0.46907276    -1.08900
O1128       O  0.55828024  0.65121433  0.53293225    -0.65500
Ni1129     Ni  0.53205707  0.34839395  0.50256168     1.26300
O1130       O  0.89996790  0.65202191  0.46628599    -0.65800
O1131       O  0.59686373  0.36695289  0.47345595    -0.78100
C1132       C  0.54878376  0.41367615  0.54536223     0.85400
O1133       O  0.56773124  0.38904732  0.53683210    -0.65200
Ni1134     Ni  0.52176655  0.60450201  0.45503726     1.27400
Ni1135     Ni  0.92625973  0.62122331  0.49620524     1.26100
H1136       H  0.97070119  0.64937904  0.55203662     0.39900
C1137       C  0.70096687  0.38750791  0.08673266    -0.12400
C1138       C  0.66184646  0.37208782  0.06745617    -0.14000
C1139       C  0.87827325  0.52373718  0.06579991    -0.12400
C1140       C  0.85625167  0.49640956  0.08596511    -0.14000
C1141       C  0.87713707  0.36631082  0.05988007    -0.12400
C1142       C  0.85964116  0.38029288  0.08351520    -0.14000
C1143       C  0.86275788  0.53411727  0.16151381    -0.12500
C1144       C  0.86600451  0.49819589  0.16841634     0.09700
C1145       C  0.90313855  0.49674156  0.19481478    -0.12500
C1146       C  0.93668693  0.53057553  0.21364353    -0.12500
C1147       C  0.93310410  0.56641424  0.20688506     0.09700
C1148       C  0.89627177  0.56792308  0.18033135    -0.12500
H1149       H  0.83389817  0.53599553  0.14175244     0.13600
H1150       H  0.90699892  0.46958379  0.20037453     0.13600
H1151       H  0.96499279  0.52869391  0.23386667     0.13600
H1152       H  0.89207732  0.59500115  0.17500327     0.13600
C1153       C  0.84430129  0.35592514  0.19564795    -0.12500
C1154       C  0.86917796  0.38124113  0.16644276     0.09700
C1155       C  0.92395127  0.38997269  0.15808421    -0.12500
C1156       C  0.95334035  0.37356808  0.17860449    -0.12500
C1157       C  0.92856402  0.34840718  0.20795899     0.09700
C1158       C  0.87363124  0.67265432  0.21602937    -0.12500
H1159       H  0.80236846  0.68240043  0.20274195     0.13600
H1160       H  0.94426452  0.41003307  0.13605752     0.13600
H1161       H  0.99571800  0.38111224  0.17204431     0.13600
H1162       H  0.85322434  0.65265088  0.23806215     0.13600
C1163       C  0.66235246  0.34388404  0.16185596    -0.12500
C1164       C  0.69832157  0.38291927  0.16877010     0.09700
C1165       C  0.68431829  0.40413076  0.19526102    -0.12500
C1166       C  0.63481303  0.38679262  0.21414508    -0.12500
C1167       C  0.59910540  0.34761211  0.20752100     0.09700
C1168       C  0.61307533  0.32643075  0.18097291    -0.12500
H1169       H  0.67255551  0.32688079  0.14166136     0.13600
H1170       H  0.71116587  0.43431460  0.20077362     0.13600
H1171       H  0.62458445  0.40381047  0.23430555     0.13600
H1172       H  0.58653019  0.62946607  0.17570597     0.13600
C1173       C  0.70126593  0.38685162  0.41081289    -0.12400
C1174       C  0.66226622  0.37116680  0.43016660    -0.14000
C1175       C  0.85662522  0.49536942  0.41228026    -0.12400
C1176       C  0.87800234  0.52283376  0.43220659    -0.14000
C1177       C  0.87737011  0.36578206  0.43865986    -0.12400
C1178       C  0.85947948  0.37914923  0.41461206    -0.14000
C1179       C  0.92458678  0.51928453  0.33766217    -0.12500
C1180       C  0.86875392  0.49800790  0.33039098     0.09700
C1181       C  0.84406938  0.51111264  0.30279294    -0.12500
C1182       C  0.87458957  0.54515384  0.28299775    -0.12500
C1183       C  0.93071002  0.56601910  0.28973487     0.09700
C1184       C  0.95527659  0.55306431  0.31754881    -0.12500
H1185       H  0.94453505  0.50944577  0.35868472     0.13600
H1186       H  0.80107304  0.49529589  0.29693369     0.13600
H1187       H  0.85448985  0.55509050  0.26216165     0.13600
H1188       H  0.99835769  0.56871060  0.32323895     0.13600
C1189       C  0.86412622  0.34215619  0.33818085    -0.12500
C1190       C  0.86916165  0.38043997  0.33150615     0.09700
C1191       C  0.90623250  0.40320889  0.30487031    -0.12500
C1192       C  0.93766114  0.38798180  0.28521484    -0.12500
C1193       C  0.93179717  0.34943285  0.29136845     0.09700
C1194       C  0.89563947  0.66027135  0.31852362    -0.12500
H1195       H  0.83568295  0.65731730  0.35845810     0.13600
H1196       H  0.91131033  0.43295956  0.29955417     0.13600
H1197       H  0.96597895  0.40606564  0.26477664     0.13600
H1198       H  0.89017790  0.63038606  0.32353021     0.13600
C1199       C  0.64561327  0.33740845  0.28299126    -0.12500
C1200       C  0.59986912  0.34555016  0.29001373     0.09700
C1201       C  0.60403317  0.37362071  0.31651018    -0.12500
C1202       C  0.65307137  0.39343690  0.33535971    -0.12500
C1203       C  0.69883026  0.38529665  0.32837471     0.09700
C1204       C  0.69476195  0.35738472  0.30171418    -0.12500
H1205       H  0.64362185  0.64945294  0.26239119     0.13600
H1206       H  0.56971413  0.38088787  0.32197954     0.13600
H1207       H  0.65530624  0.41522126  0.35544845     0.13600
H1208       H  0.72919800  0.35032212  0.29604095     0.13600
C1209       C  0.60238520  0.47485252  0.91058504    -0.12400
C1210       C  0.58043867  0.44745815  0.93053153    -0.14000
C1211       C  0.75594173  0.58544636  0.91074765    -0.12400
C1212       C  0.79505858  0.60128006  0.92982927    -0.14000
C1213       C  0.59719566  0.59040102  0.91305206    -0.12400
C1214       C  0.57974915  0.60438124  0.93674910    -0.14000
C1215       C  0.80694686  0.58069086  0.83743130    -0.12500
C1216       C  0.76027376  0.58684848  0.82823131     0.09700
C1217       C  0.76330380  0.61201997  0.79903198    -0.12500
C1218       C  0.81237157  0.63158255  0.78023066    -0.11500
C1219       C  0.85897406  0.62526864  0.78939651     0.09700
C1220       C  0.85584934  0.60006569  0.81854019    -0.12500
H1221       H  0.80559243  0.56062963  0.85917055     0.13600
H1222       H  0.72811017  0.61715586  0.79111845     0.13600
H1223       H  0.81374959  0.65136616  0.75821860     0.13600
H1224       H  0.89083391  0.59461293  0.82626930     0.13600
C1225       C  0.61642360  0.62262880  0.80847002    -0.12500
C1226       C  0.58955503  0.58985634  0.83072188     0.09700
C1227       C  0.53254013  0.57337376  0.83281999    -0.12500
C1228       C  0.50257723  0.58944717  0.81270399    -0.12500
C1229       C  0.52936534  0.62220027  0.79042920     0.09700
C1230       C  0.58645757  0.63879682  0.78842876    -0.12500
H1231       H  0.66038985  0.63603094  0.80705779     0.13600
H1232       H  0.51133091  0.54774273  0.84962469     0.13600
H1233       H  0.45861913  0.57558688  0.81363999     0.13600
H1234       H  0.60762304  0.66411519  0.77123613     0.13600
C1235       C  0.55429687  0.47355420  0.80265562    -0.12500
C1236       C  0.59271757  0.47289925  0.82839438     0.09700
C1237       C  0.59761284  0.43746061  0.83491762    -0.12500
C1238       C  0.56429302  0.40329746  0.81644826    -0.12500
C1239       C  0.52595903  0.40397895  0.79067289     0.09700
C1240       C  0.52096901  0.43938003  0.78417163    -0.12500
H1241       H  0.54928283  0.50034259  0.79737224     0.13600
H1242       H  0.62745855  0.43623609  0.85421692     0.13600
H1243       H  0.56966705  0.37660066  0.82145508     0.13600
H1244       H  0.99165439  0.44068111  0.76444905     0.13600
C1245       C  0.58060482  0.44697764  0.56668047    -0.12400
C1246       C  0.60222405  0.47471132  0.58624156    -0.14000
C1247       C  0.75655485  0.58138114  0.58663290    -0.12400
C1248       C  0.79568572  0.59692380  0.56758316    -0.14000
C1249       C  0.58052819  0.60432861  0.56119976    -0.12400
C1250       C  0.59854975  0.59095601  0.58516137    -0.14000
C1251       C  0.53606694  0.44987147  0.65955520    -0.12500
C1252       C  0.59125513  0.47211577  0.66801776     0.09700
C1253       C  0.61541562  0.45993351  0.69657642    -0.12500
C1254       C  0.58507198  0.42568976  0.71603354    -0.12500
C1255       C  0.52952431  0.40389488  0.70809554     0.09700
C1256       C  0.50553578  0.41592936  0.67933230    -0.12500
H1257       H  0.51642214  0.45906789  0.63785726     0.13600
H1258       H  0.65789810  0.47651599  0.70337064     0.13600
H1259       H  0.60485180  0.41635825  0.73753651     0.13600
H1260       H  0.96290935  0.39961184  0.67276726     0.13600
C1261       C  0.82579244  0.58290146  0.71382008    -0.12500
C1262       C  0.86104495  0.62216389  0.70667526     0.09700
C1263       C  0.84679871  0.64264812  0.67946872    -0.12500
C1264       C  0.79737441  0.62473282  0.66064614    -0.12500
C1265       C  0.76151232  0.58581131  0.66833964     0.09700
C1266       C  0.77611991  0.56504471  0.69513301    -0.12500
H1267       H  0.83627904  0.56635181  0.73446303     0.13600
H1268       H  0.87308028  0.67288011  0.67361382     0.13600
H1269       H  0.78680235  0.64143352  0.64020571     0.13600
H1270       H  0.74951078  0.53493901  0.70122036     0.13600
C1271       C  0.55652299  0.56784396  0.69593770    -0.12500
C1272       C  0.59222862  0.59009175  0.66846723     0.09700
C1273       C  0.59661377  0.62811065  0.66121070    -0.12500
C1274       C  0.56522304  0.64341471  0.68077980    -0.12500
C1275       C  0.52929886  0.62108704  0.70810255     0.09700
C1276       C  0.52488443  0.58303814  0.71531412    -0.12500
H1277       H  0.55210728  0.53833472  0.70178776     0.13600
H1278       H  0.62462867  0.64608284  0.64059075     0.13600
H1279       H  0.56983884  0.67299797  0.67511703     0.13600
H1280       H  0.49684428  0.56502880  0.73590006     0.13600
C1281       C  0.65305785  0.88244956  0.59245989     0.46300
H1282       H  0.65334176  0.88246694  0.56199762    -0.02700
C1283       C  0.65242463  0.88221000  0.66382253     0.46400
H1284       H  0.65212251  0.88216451  0.69422827    -0.02700
C1285       C  0.62527438  0.84191024  0.60915968    -0.16400
C1286       C  0.70933388  0.89948170  0.60940214    -0.16200
C1287       C  0.62395630  0.90596140  0.60891067    -0.16500
C1288       C  0.62361191  0.84119637  0.64661249    -0.16500
C1289       C  0.71027351  0.90011519  0.64686202    -0.16100
C1290       C  0.62287662  0.90593188  0.64650458    -0.16400
C1291       C  0.65135391  0.88362370  0.83371493     0.46300
H1292       H  0.65036974  0.88412792  0.80332413    -0.02700
C1293       C  0.65283516  0.88240225  0.90503049     0.46400
H1294       H  0.65332994  0.88193543  0.93548714    -0.02700
C1295       C  0.62076987  0.90582371  0.85185468    -0.16400
C1296       C  0.62447600  0.84197304  0.85027217    -0.16200
C1297       C  0.70944362  0.90187229  0.85036395    -0.16500
C1298       C  0.62186572  0.90503702  0.88926016    -0.16500
C1299       C  0.62663881  0.84206368  0.88780030    -0.16100
C1300       C  0.70897945  0.90095625  0.88794013    -0.16400
C1301       C  0.46839715  0.99475939  0.71315912     0.46300
H1302       H  0.46908724  0.99490799  0.68275454    -0.02700
C1303       C  0.46714901  0.99408240  0.78452515     0.46400
H1304       H  0.46707514  0.99390780  0.81493250    -0.02700
C1305       C  0.49631808  0.70242317  0.73041667    -0.16400
C1306       C  0.91055228  0.97597539  0.72955306    -0.16200
C1307       C  0.49850094  0.97163589  0.73023206    -0.16500
C1308       C  0.49542139  0.70211425  0.76806520    -0.16500
C1309       C  0.90983236  0.97613881  0.76720478    -0.16100
C1310       C  0.49764944  0.97131176  0.76778912    -0.16400
C1311       C  0.80805569  0.75445738  0.33465516     0.46300
H1312       H  0.80948336  0.75459587  0.30426720    -0.02700
C1313       C  0.80500990  0.75432190  0.40592565     0.46400
H1314       H  0.80386829  0.75432493  0.43637415    -0.02700
C1315       C  0.83702537  0.73073029  0.35271791    -0.16400
C1316       C  0.83642419  0.79555675  0.35180500    -0.16200
C1317       C  0.74945489  0.73698467  0.35073345    -0.16500
C1318       C  0.83451563  0.73064829  0.39024695    -0.16500
C1319       C  0.83365401  0.79490082  0.38923883    -0.16100
C1320       C  0.74906471  0.73738037  0.38829272    -0.16400
C1321       C  0.80494130  0.75542333  0.09199668     0.46300
H1322       H  0.80407730  0.75584582  0.06154908    -0.02700
C1323       C  0.80710115  0.75432144  0.16328267     0.46400
H1324       H  0.80794209  0.75378117  0.19367559    -0.02700
C1325       C  0.83130345  0.79588389  0.10909320    -0.16400
C1326       C  0.74889709  0.73662421  0.10930782    -0.16200
C1327       C  0.83635685  0.73295066  0.10762925    -0.16500
C1328       C  0.83362323  0.79598169  0.14665286    -0.16500
C1329       C  0.74896754  0.73539445  0.14677223    -0.16100
C1330       C  0.83831663  0.73242397  0.14513601    -0.16400
C1331       C  0.99147070  0.97637906  0.21325001     0.46300
H1332       H  0.99130595  0.97685461  0.18284458    -0.02700
C1333       C  0.99175611  0.97533833  0.28458323     0.46400
H1334       H  0.99176705  0.97490706  0.31498918    -0.02700
C1335       C  0.96398813  0.93487939  0.22967883    -0.16400
C1336       C  0.54903657  0.99486814  0.23004746    -0.16200
C1337       C  0.96035933  0.99862589  0.23055516    -0.16500
C1338       C  0.96376941  0.93439542  0.26735951    -0.16500
C1339       C  0.54927619  0.99413567  0.26764251    -0.16100
C1340       C  0.96086429  0.99829921  0.26824501    -0.16400
O1341       O  0.95558344  0.89388331  0.03236817    -0.80000
O1342       O  0.56787447  0.72282733  0.96038475    -0.64700
O1343       O  0.99224471  0.97511287  0.02844136    -1.11300
C1344       C  0.84388688  0.95587963  0.94955064     1.06900
O1345       O  0.50338378  0.74459493  0.96414238    -0.77900
O1346       O  0.91089135  0.70719608  0.00083200    -0.65500
Ni1347     Ni  0.52155015  0.93862204  0.04288213     1.34900
C1348       C  0.89700242  0.68574012  0.02906476     0.85600
O1349       O  0.59709679  0.70047497  0.02355407    -0.78500
O1350       O  0.58907175  0.98056133  0.05604676    -0.88700
C1351       C  0.54944658  0.74796601  0.95269040     0.85200
O1352       O  0.54883378  0.93187351  0.99647387    -0.66900
O1353       O  0.86821171  0.99206886  0.94177806    -0.86200
C1354       C  0.56081944  0.95230772  0.96754686     0.86000
C1355       C  0.61346981  0.68310011  0.04761393     1.07600
H1356       H  0.96995096  0.98451895  0.94552210     0.39400
O1357       O  0.96546432  0.99658013  0.96788489    -1.08900
O1358       O  0.89969080  0.98616100  0.03177531    -0.65500
Ni1359     Ni  0.92577809  0.95574866  0.00132033     1.26300
O1360       O  0.55709241  0.98476691  0.96433604    -0.65800
O1361       O  0.86096063  0.93774913  0.97241623    -0.78100
C1362       C  0.90918693  0.89001520  0.04361546     0.85400
O1363       O  0.89012303  0.91476496  0.03554348    -0.65200
Ni1364     Ni  0.93667974  0.70034052  0.95402223     1.27400
Ni1365     Ni  0.53201092  0.68232637  0.99478266     1.26100
H1366       H  0.98755684  0.98736125  0.05062506     0.39900
O1367       O  0.50171001  0.74297413  0.53548645    -0.80000
O1368       O  0.89048905  0.91431135  0.46168328    -0.64700
O1369       O  0.96579278  0.99506319  0.52992137    -1.11300
C1370       C  0.61381362  0.68255976  0.45018393     1.06900
O1371       O  0.95548499  0.89302949  0.46507516    -0.77900
O1372       O  0.54803831  0.93080047  0.50170766    -0.65500
Ni1373     Ni  0.93572529  0.69768589  0.54464620     1.34900
C1374       C  0.56110822  0.95174073  0.53020299     0.85600
O1375       O  0.86160550  0.93558562  0.52496277    -0.78500
O1376       O  0.86808584  0.98878488  0.55672907    -0.88700
C1377       C  0.90905487  0.88930394  0.45395783     0.85200
O1378       O  0.90977695  0.70536104  0.49800658    -0.66900
O1379       O  0.58954673  0.97975289  0.44225366    -0.86200
C1380       C  0.89687986  0.68470167  0.46932574     0.86000
C1381       C  0.84429143  0.95279933  0.54833393     1.07600
H1382       H  0.98755409  0.98666069  0.44676856     0.39400
O1383       O  0.99245308  0.97443886  0.46906921    -1.08900
O1384       O  0.55833036  0.98452944  0.53286742    -0.65500
Ni1385     Ni  0.53204379  0.68167986  0.50258856     1.26300
O1386       O  0.90006091  0.98548578  0.46632040    -0.65800
O1387       O  0.59689873  0.70024188  0.47351038    -0.78100
C1388       C  0.54877311  0.74695194  0.54543781     0.85400
O1389       O  0.56769176  0.72231521  0.53687600    -0.65200
Ni1390     Ni  0.52170906  0.93784705  0.45496594     1.27400
Ni1391     Ni  0.92623916  0.95460754  0.49620193     1.26100
H1392       H  0.97073360  0.98267423  0.55204499     0.39900
C1393       C  0.70103279  0.72073162  0.08677593    -0.12400
C1394       C  0.66186117  0.70525153  0.06754938    -0.14000
C1395       C  0.87847746  0.85710557  0.06599747    -0.12400
C1396       C  0.85638629  0.82975092  0.08610894    -0.14000
C1397       C  0.87714504  0.69965696  0.05978322    -0.12400
C1398       C  0.85970630  0.71363670  0.08346403    -0.14000
C1399       C  0.86275451  0.86736926  0.16167586    -0.12500
C1400       C  0.86615444  0.83148742  0.16850198     0.09700
C1401       C  0.90350543  0.83010137  0.19476923    -0.12500
C1402       C  0.93707896  0.86396726  0.21356179    -0.12500
C1403       C  0.93332366  0.89976426  0.20687491     0.09700
C1404       C  0.89630296  0.90120153  0.18043837    -0.12500
H1405       H  0.83374927  0.86919457  0.14200542     0.13600
H1406       H  0.90748891  0.80297411  0.20026071     0.13600
H1407       H  0.96551950  0.86214220  0.23370963     0.13600
H1408       H  0.89197381  0.92824238  0.17517492     0.13600
C1409       C  0.84449833  0.68944638  0.19581389    -0.12500
C1410       C  0.86927443  0.71454114  0.16644843     0.09700
C1411       C  0.92395504  0.72308136  0.15796651    -0.12500
C1412       C  0.95333980  0.70669983  0.17852079    -0.12500
C1413       C  0.92865732  0.68175346  0.20803196     0.09700
C1414       C  0.87351118  0.00587984  0.21596988    -0.12500
H1415       H  0.80222955  0.01556619  0.20259732     0.13600
H1416       H  0.94421638  0.74298820  0.13582695     0.13600
H1417       H  0.99564741  0.71409765  0.17185877     0.13600
H1418       H  0.85304411  0.98578305  0.23792740     0.13600
C1419       C  0.66245804  0.67719508  0.16192253    -0.12500
C1420       C  0.69835389  0.71626322  0.16876853     0.09700
C1421       C  0.68416820  0.73755864  0.19507821    -0.12500
C1422       C  0.63460365  0.72023854  0.21390258    -0.12500
C1423       C  0.59900808  0.68100820  0.20738020     0.09700
C1424       C  0.61311416  0.65976862  0.18096645    -0.12500
H1425       H  0.67277466  0.66014495  0.14183800     0.13600
H1426       H  0.71093459  0.76778002  0.20050790     0.13600
H1427       H  0.62426293  0.73729410  0.23396413     0.13600
H1428       H  0.58572416  0.96320518  0.17510800     0.13600
C1429       C  0.70128913  0.72017531  0.41080372    -0.12400
C1430       C  0.66230896  0.70449034  0.43018603    -0.14000
C1431       C  0.85650968  0.82879900  0.41216399    -0.12400
C1432       C  0.87784648  0.85627955  0.43208075    -0.14000
C1433       C  0.87736510  0.69907164  0.43862691    -0.12400
C1434       C  0.85951391  0.71252789  0.41462498    -0.14000
C1435       C  0.92460953  0.85253638  0.33754704    -0.12500
C1436       C  0.86876230  0.83131633  0.33029285     0.09700
C1437       C  0.84409999  0.84445364  0.30270567    -0.12500
C1438       C  0.87465598  0.87849620  0.28292553    -0.12500
C1439       C  0.93077857  0.89932723  0.28967566     0.09700
C1440       C  0.95533060  0.88631984  0.31745443    -0.12500
H1441       H  0.94453547  0.84266042  0.35855499     0.13600
H1442       H  0.80109540  0.82867049  0.29685298     0.13600
H1443       H  0.85457977  0.88847171  0.26210420     0.13600
H1444       H  0.99841745  0.90193672  0.32314188     0.13600
C1445       C  0.86438484  0.67558161  0.33831387    -0.12500
C1446       C  0.86928374  0.71381831  0.33154379     0.09700
C1447       C  0.90628787  0.73655577  0.30486129    -0.12500
C1448       C  0.93776996  0.72134142  0.28524812    -0.12500
C1449       C  0.93200610  0.68282505  0.29147454     0.09700
C1450       C  0.89529500  0.99345175  0.31846969    -0.12500
H1451       H  0.83533319  0.99052625  0.35840243     0.13600
H1452       H  0.91127161  0.76627306  0.29947300     0.13600
H1453       H  0.96601963  0.73939854  0.26476433     0.13600
H1454       H  0.88972580  0.96353245  0.32340870     0.13600
C1455       C  0.64578430  0.67098305  0.28273793    -0.12500
C1456       C  0.59997012  0.67901168  0.28986628     0.09700
C1457       C  0.60406808  0.70695431  0.31648136    -0.12500
C1458       C  0.65308122  0.72672719  0.33536789    -0.12500
C1459       C  0.69888492  0.71866491  0.32831012     0.09700
C1460       C  0.69491048  0.69091905  0.30149759    -0.12500
H1461       H  0.64320314  0.98230336  0.26285037     0.13600
H1462       H  0.56970487  0.71414533  0.32203247     0.13600
H1463       H  0.65525510  0.74841517  0.35554525     0.13600
H1464       H  0.72939269  0.68393538  0.29574323     0.13600
C1465       C  0.60236118  0.80817450  0.91060002    -0.12400
C1466       C  0.58051340  0.78078503  0.93056830    -0.14000
C1467       C  0.75595318  0.91858438  0.91089329    -0.12400
C1468       C  0.79499702  0.93435474  0.93006569    -0.14000
C1469       C  0.59737171  0.92385041  0.91312309    -0.12400
C1470       C  0.57994187  0.93783815  0.93681739    -0.14000
C1471       C  0.80700759  0.91399304  0.83748534    -0.12500
C1472       C  0.76031513  0.92014120  0.82830943     0.09700
C1473       C  0.76330801  0.94529450  0.79910092    -0.12500
C1474       C  0.81235808  0.96486061  0.78027652    -0.11500
C1475       C  0.85899386  0.95858017  0.78942761     0.09700
C1476       C  0.85589673  0.93336881  0.81856456    -0.12500
H1477       H  0.80567883  0.89393762  0.85922346     0.13600
H1478       H  0.72809887  0.95043291  0.79121398     0.13600
H1479       H  0.81370141  0.98463883  0.75826877     0.13600
H1480       H  0.89089827  0.92791317  0.82626305     0.13600
C1481       C  0.61639774  0.95607639  0.80865024    -0.12500
C1482       C  0.58956579  0.92320976  0.83079401     0.09700
C1483       C  0.53252853  0.90654080  0.83272380    -0.12500
C1484       C  0.50251490  0.92255349  0.81257010    -0.12500
C1485       C  0.52928339  0.95542766  0.79042856     0.09700
C1486       C  0.58638491  0.97218109  0.78857546    -0.12500
H1487       H  0.66037435  0.96958174  0.80733261     0.13600
H1488       H  0.51135115  0.88082054  0.84942687     0.13600
H1489       H  0.45854944  0.90857814  0.81338601     0.13600
H1490       H  0.60752543  0.99757822  0.77147061     0.13600
C1491       C  0.55397494  0.80691366  0.80285094    -0.12500
C1492       C  0.59262683  0.80631572  0.82843001     0.09700
C1493       C  0.59773886  0.77093987  0.83482586    -0.12500
C1494       C  0.56439397  0.73676296  0.81639893    -0.12500
C1495       C  0.52581871  0.73737371  0.79079057     0.09700
C1496       C  0.52062249  0.77272049  0.78439861    -0.12500
H1497       H  0.54881976  0.83366695  0.79766602     0.13600
H1498       H  0.62776259  0.76977760  0.85400611     0.13600
H1499       H  0.56994019  0.71011384  0.82129549     0.13600
H1500       H  0.99125581  0.77394221  0.76466844     0.13600
C1501       C  0.58067030  0.78025860  0.56672823    -0.12400
C1502       C  0.60235294  0.80800262  0.58626951    -0.14000
C1503       C  0.75651725  0.91487268  0.58657122    -0.12400
C1504       C  0.79566714  0.93041006  0.56754965    -0.14000
C1505       C  0.58050965  0.93759344  0.56110003    -0.12400
C1506       C  0.59845035  0.92418737  0.58508150    -0.14000
C1507       C  0.53627753  0.78317209  0.65951437    -0.12500
C1508       C  0.59140363  0.80550769  0.66807349     0.09700
C1509       C  0.61545033  0.79348510  0.69681306    -0.12500
C1510       C  0.58508047  0.75927418  0.71630960    -0.12500
C1511       C  0.52959913  0.73736489  0.70824019     0.09700
C1512       C  0.50571752  0.74927222  0.67933167    -0.12500
H1513       H  0.51669177  0.79226282  0.63770502     0.13600
H1514       H  0.65787326  0.81015290  0.70370890     0.13600
H1515       H  0.60480729  0.75004248  0.73791792     0.13600
H1516       H  0.96315574  0.73286179  0.67261799     0.13600
C1517       C  0.82581906  0.91629089  0.71373808    -0.12500
C1518       C  0.86103662  0.95557422  0.70668191     0.09700
C1519       C  0.84679165  0.97611535  0.67952268    -0.12500
C1520       C  0.79739564  0.95821873  0.66065506    -0.12500
C1521       C  0.76155791  0.91927109  0.66827594     0.09700
C1522       C  0.77617815  0.89845837  0.69501596    -0.12500
H1523       H  0.83631327  0.89970074  0.73433609     0.13600
H1524       H  0.87305705  0.00636580  0.67373205     0.13600
H1525       H  0.78682358  0.97495082  0.64024613     0.13600
H1526       H  0.74959601  0.86833076  0.70103705     0.13600
C1527       C  0.55656151  0.90112037  0.69594990    -0.12500
C1528       C  0.59214008  0.92334794  0.66841347     0.09700
C1529       C  0.59641743  0.96133042  0.66111750    -0.12500
C1530       C  0.56503560  0.97661752  0.68071162    -0.12500
C1531       C  0.52922336  0.95430751  0.70809472     0.09700
C1532       C  0.52492023  0.91629366  0.71534607    -0.12500
H1533       H  0.55223841  0.87163860  0.70183352     0.13600
H1534       H  0.62434813  0.97929138  0.64045291     0.13600
H1535       H  0.56957222  0.00617662  0.67501648     0.13600
H1536       H  0.49695331  0.89828864  0.73596701     0.13600
loop_ 
_geom_bond_atom_site_label_1 
_geom_bond_atom_site_label_2 
_geom_bond_distance 
_geom_bond_site_symmetry_2 
_ccdc_geom_bond_type 
C1            H2   1.113       .  S
C1            C7   1.524       .  S
C1            C6   1.513       .  S
C1            C5   1.518       .  S
C3            H4   1.111       .  S
C3            C9   1.550       .  S
C3            C8   1.545       .  S
C3           C10   1.548       .  S
C5            C8   1.369       .  D
C5          C222   1.434       .  S
C6            C9   1.369       .  D
C6          C223   1.429       .  S
C7           C10   1.374       .  D
C7          C226   1.440       .  S
C8          C228   1.483       .  S
C9          C241   1.490       .  S
C10         C248   1.483       .  S
C11          H12   1.111       .  S
C11          C17   1.550       .  S
C11          C16   1.548       .  S
C11          C15   1.541       .  S
C13          H14   1.113       .  S
C13          C19   1.520       .  S
C13          C18   1.523       .  S
C13          C20   1.515       .  S
C15          C18   1.368       .  D
C15         C202   1.471       .  S
C16          C19   1.373       .  D
C16         C212   1.491       .  S
C17          C20   1.373       .  D
C17         C192   1.491       .  S
C18         C189   1.442       .  S
C19         C185   1.432       .  S
C20         C187   1.432       .  S
C21          H22   1.111       .  S
C21          C27   1.538       .  S
C21         C794   1.542       .  S
C21         C281   1.541       .  S
C23          H24   1.111       .  S
C23          C30   1.534       .  S
C23         C797   1.542       .  S
C23         C284   1.541       .  S
C25         C533   1.541   1_545  S
C25          C28   1.376       .  D
C25         C231   1.486   1_655  S
C26         C789   1.542       .  S
C26          C29   1.376       .  D
C26         C238   1.491       .  S
C27          C30   1.373       .  D
C27         C251   1.485   1_655  S
C28         C535   1.541   1_545  S
C28         C215   1.492   1_655  S
C29         C791   1.542       .  S
C29         C195   1.491       .  S
C30         C205   1.474   1_655  S
C31          H32   1.111       .  S
C31          C37   1.553       .  S
C31          C36   1.545       .  S
C31          C35   1.548       .  S
C33          H34   1.113       .  S
C33          C39   1.521       .  S
C33          C38   1.526       .  S
C33          C40   1.516       .  S
C35          C38   1.373       .  D
C35         C166   1.486       .  S
C36          C39   1.370       .  D
C36         C156   1.487       .  S
C37          C40   1.372       .  D
C37         C179   1.492       .  S
C38         C154   1.441       .  S
C39         C151   1.435       .  S
C40         C149   1.437       .  S
C41          H42   1.113       .  S
C41          C47   1.526       .  S
C41          C46   1.516       .  S
C41          C45   1.522       .  S
C43          H44   1.111       .  S
C43          C49   1.550       .  S
C43          C48   1.549       .  S
C43          C50   1.545       .  S
C45          C48   1.374       .  D
C45         C116   1.437       .  S
C46          C49   1.370       .  D
C46         C113   1.435       .  S
C47          C50   1.372       .  D
C47         C118   1.441       .  S
C48         C120   1.491       .  S
C49         C140   1.488       .  S
C50         C130   1.483       .  S
C51          H52   1.111       .  S
C51          C57   1.541       .  S
C51          C55   1.542       .  S
C51         C824   1.541       .  S
C53          H54   1.111       .  S
C53          C58   1.541       .  S
C53          C60   1.539       .  S
C53         C827   1.543       .  S
C55          C58   1.377       .  D
C55         C123   1.490       .  S
C56         C819   1.541   1_455  S
C56          C59   1.374       .  D
C56         C399   1.490       .  S
C57          C60   1.378       .  D
C57         C389   1.488       .  S
C58         C159   1.490       .  S
C59         C821   1.543   1_455  S
C59         C432   1.493       .  S
C60         C425   1.486       .  S
O61          C82   1.265       .  A
O61        Ni835   1.916       .  S
O62          C71   1.262       .  A
O62         Ni85   1.899       .  S
O63          H86   0.966       .  S
O63         Ni79   1.908       .  S
O63        Ni835   1.912       .  S
O63       Ni1109   1.904   1_554  S
C64          O81   1.273       .  A
C64          O73   1.273       .  A
C64         C188   1.420       .  S
O65          C71   1.265       .  A
O65        Ni852   1.916   1_455  S
O66          C68   1.265       .  A
O66         Ni84   1.904   1_554  S
Ni67         O70   1.914       .  S
Ni67         O72   1.908   1_554  S
Ni67        O829   1.916   1_455  S
Ni67        O831   1.912   1_455  S
C68         O590   1.267   1_545  A
C68         C117   1.432       .  S
O69          C75   1.273       .  A
O69         Ni85   1.912   1_554  S
O70         C331   1.273       .  A
C71         C186   1.421       .  S
O72          C74   1.266       .  A
O73        Ni340   1.912       .  S
C74          O80   1.266       .  A
C74         C190   1.433       .  S
C75         O582   1.273   1_545  A
C75         C114   1.424       .  S
H76          O77   0.966       .  S
O77         Ni79   1.904   1_556  S
O77       Ni1109   1.907       .  S
O77        Ni340   1.911       .  S
O78         C324   1.267       .  A
O78         Ni79   1.922       .  S
Ni79         O83   1.905       .  S
Ni79         O81   1.909   1_554  S
O80        Ni341   1.921       .  S
C82          O83   1.264       .  A
C82         C115   1.426       .  S
Ni84        O833   1.916       .  S
Ni84        O585   1.913   1_545  S
Ni84        O589   1.911   1_545  S
Ni85        O592   1.921   1_545  S
Ni85       O1343   1.904   1_446  S
Ni85       O1357   1.907   1_445  S
O87         C108   1.265       .  A
O87        Ni861   1.916   1_455  S
O88          C97   1.262       .  A
O88        Ni111   1.901       .  S
O89         H112   0.967       .  S
O89        Ni111   1.907       .  S
O89        Ni349   1.912       .  S
O89       Ni1129   1.909       .  S
C90         O107   1.275       .  A
C90         O611   1.273   1_545  A
C90         C150   1.425       .  S
O91          C97   1.265       .  A
O91        Ni878   1.918       .  S
O92          C94   1.266       .  A
O92        Ni110   1.907       .  S
Ni93         O98   1.906       .  S
Ni93        O855   1.916       .  S
Ni93        O608   1.912   1_545  S
Ni93        O601   1.912   1_545  S
C94         O104   1.265       .  A
C94         C225   1.432       .  S
O95         C101   1.270       .  A
O95        Ni111   1.904       .  S
O96         C101   1.272       .  A
O96        Ni349   1.913       .  S
C97         C152   1.424       .  S
O98         C100   1.266       .  A
O99         C346   1.273       .  A
O99        Ni110   1.914       .  S
C100        O618   1.266   1_545  A
C100        C153   1.432       .  S
C101        C224   1.418       .  S
H102        O103   0.968       .  S
O103       Ni111   1.904       .  S
O103      Ni1129   1.905       .  S
O103       Ni878   1.912       .  S
O104       Ni361   1.919       .  S
Ni105       O109   1.903       .  S
Ni105       O107   1.914       .  S
Ni105       O616   1.919   1_545  S
Ni105      O1369   1.909   1_445  S
Ni105      O1383   1.905   1_445  S
O106        C356   1.266       .  A
O106       Ni111   1.919       .  S
C108        O109   1.264       .  A
C108        C221   1.423       .  S
Ni110       O859   1.918   1_455  S
Ni110       O871   1.912   1_455  S
C113        C114   1.200       .  T
C115        C116   1.201       .  T
C117        C118   1.204       .  T
C119        C120   1.406       .  A
C119        C124   1.399       .  A
C119        H125   1.083       .  S
C120        C121   1.404       .  A
C121        C122   1.400       .  A
C121        H126   1.083       .  S
C122        C123   1.406       .  A
C122        H127   1.083       .  S
C123        C124   1.403       .  A
C124        H128   1.083       .  S
C129        C130   1.401       .  A
C129        C646   1.398       .  A
C129        H647   1.083       .  S
C130        C131   1.406       .  A
C131        C132   1.400       .  A
C131        H136   1.083       .  S
C132        C133   1.402       .  A
C132        H137   1.083       .  S
C133        C569   1.487   1_545  S
C133        C646   1.407       .  A
C134        C385   1.399       .  A
C134        C389   1.407       .  A
C134        H138   1.083       .  S
H135        C385   1.083       .  S
C139        C140   1.408       .  A
C139        C144   1.401   1_545  A
C139        H145   1.083   1_545  S
C140        C141   1.401       .  A
C141        C142   1.401       .  A
C141        H146   1.083       .  S
C142        C143   1.408       .  A
C142        H147   1.083       .  S
C143        C568   1.490   1_545  S
C143        C144   1.401   1_545  A
C144        H660   1.083       .  S
H148        C400   1.083       .  S
C149        C150   1.200       .  T
C151        C152   1.200       .  T
C153        C154   1.204       .  T
C155        C156   1.407       .  A
C155        C160   1.401       .  A
C155        H161   1.083       .  S
C156        C157   1.400       .  A
C157        C158   1.401       .  A
C157        H162   1.083       .  S
C158        C159   1.409       .  A
C158        H163   1.083       .  S
C159        C160   1.401       .  A
C160        H164   1.083       .  S
C165        C166   1.405       .  A
C165        C682   1.400   1_545  A
C165        H683   1.083   1_545  S
C166        C167   1.404       .  A
C167        C168   1.399       .  A
C167        H172   1.083       .  S
C168        C169   1.405       .  A
C168        H173   1.083       .  S
C169        C572   1.486   1_545  S
C169        C682   1.403   1_545  A
C170        C421   1.400       .  A
C170        C425   1.403       .  A
C170        H174   1.083       .  S
H171        C421   1.083       .  S
C175        C176   1.408       .  A
C175        C180   1.402       .  A
C175        H693   1.083   1_545  S
C176        C571   1.492   1_545  S
C176        C177   1.402       .  A
C177        C178   1.401       .  A
C177        H182   1.083       .  S
C178        C179   1.408       .  A
C178        H183   1.083       .  S
C179        C180   1.403       .  A
C180        H184   1.083       .  S
H181        C431   1.083       .  S
C185        C186   1.198       .  T
C187        C188   1.198       .  T
C189        C190   1.204       .  T
C191        C192   1.407       .  A
C191        C196   1.397       .  A
C191        H197   1.082       .  S
C192        C193   1.402       .  A
C193        C194   1.399       .  A
C193        H198   1.079       .  S
C194        C195   1.407       .  A
C194        H199   1.083       .  S
C195        C196   1.401       .  A
C196        H200   1.079       .  S
C201        C202   1.400       .  A
C201        C206   1.396       .  A
C201        H207   1.080       .  S
C202        C203   1.401       .  A
C203        C204   1.395       .  A
C203        H208   1.083       .  S
C204        C205   1.400       .  A
C204        H209   1.080   1_455  S
C205        C206   1.403       .  A
C206        H210   1.083       .  S
C211        C212   1.404       .  A
C211        C216   1.401       .  A
C211        H217   1.083       .  S
C212        C213   1.407       .  A
C213        C214   1.400       .  A
C213        H218   1.083       .  S
C214        C215   1.403       .  A
C214        H219   1.083       .  S
C215        C216   1.407       .  A
C216        H988   1.083   1_455  S
H220        C984   1.083       .  S
C221        C222   1.199       .  T
C223        C224   1.196       .  T
C225        C226   1.203       .  T
C227        C228   1.407       .  A
C227        C232   1.398       .  A
C227        H233   1.083       .  S
C228        C229   1.399       .  A
C229        C230   1.399       .  A
C229        H234   1.083       .  S
C230        C231   1.409       .  A
C230        H235   1.083       .  S
C231        C232   1.399       .  A
C232       H1004   1.083   1_455  S
H236       C1000   1.083       .  S
C237        C238   1.410       .  A
C237        C242   1.402       .  A
C237        H243   1.083       .  S
C238        C239   1.400       .  A
C239        C240   1.400       .  A
C239        H244   1.083       .  S
C240        C241   1.408       .  A
C240        H245   1.083       .  S
C241        C242   1.401       .  A
C242        H246   1.083       .  S
C247        C248   1.403       .  A
C247        C252   1.397       .  A
C247        H253   1.083       .  S
C248        C249   1.405       .  A
C249        C250   1.398       .  A
C249        H254   1.083       .  S
C250        C251   1.402       .  A
C250        H255   1.083       .  S
C251        C252   1.406       .  A
C252        H256   1.083   1_455  S
C257        H258   1.113       .  S
C257        C263   1.524       .  S
C257        C262   1.513       .  S
C257        C261   1.518       .  S
C259        H260   1.111       .  S
C259        C265   1.550       .  S
C259        C264   1.545       .  S
C259        C266   1.548       .  S
C261        C264   1.369       .  D
C261        C478   1.435       .  S
C262        C265   1.369       .  D
C262        C479   1.429       .  S
C263        C266   1.374       .  D
C263        C482   1.440       .  S
C264        C484   1.483       .  S
C265        C497   1.490       .  S
C266        C504   1.483       .  S
C267        H268   1.111       .  S
C267        C273   1.550       .  S
C267        C272   1.548       .  S
C267        C271   1.541       .  S
C269        H270   1.113       .  S
C269        C275   1.520       .  S
C269        C274   1.523       .  S
C269        C276   1.515       .  S
C271        C274   1.368       .  D
C271        C458   1.471       .  S
C272        C275   1.373       .  D
C272        C468   1.491       .  S
C273        C276   1.373       .  D
C273        C448   1.491       .  S
C274        C445   1.442       .  S
C275        C441   1.432       .  S
C276        C443   1.432       .  S
C277        H278   1.111       .  S
C277        C283   1.538       .  S
C277       C1050   1.542       .  S
C277        C537   1.541       .  S
C279        H280   1.111       .  S
C279       C1053   1.542       .  S
C279        C540   1.541       .  S
C279        C286   1.535       .  S
C281        C284   1.376       .  D
C281        C487   1.486   1_655  S
C282       C1045   1.542       .  S
C282        C285   1.376       .  D
C282        C494   1.491       .  S
C283        C286   1.373       .  D
C283        C507   1.485   1_655  S
C284        C471   1.491   1_655  S
C285       C1047   1.542       .  S
C285        C451   1.492       .  S
C286        C461   1.474   1_655  S
C287        H288   1.111       .  S
C287        C293   1.554       .  S
C287        C292   1.546       .  S
C287        C291   1.548       .  S
C289        H290   1.113       .  S
C289        C295   1.521       .  S
C289        C294   1.525       .  S
C289        C296   1.516       .  S
C291        C294   1.373       .  D
C291        C422   1.487       .  S
C292        C295   1.370       .  D
C292        C412   1.487       .  S
C293        C296   1.373       .  D
C293        C435   1.493       .  S
C294        C410   1.441       .  S
C295        C407   1.435       .  S
C296        C405   1.437       .  S
C297        H298   1.113       .  S
C297        C303   1.526       .  S
C297        C302   1.516       .  S
C297        C301   1.522       .  S
C299        H300   1.111       .  S
C299        C305   1.550       .  S
C299        C304   1.549       .  S
C299        C306   1.545       .  S
C301        C304   1.374       .  D
C301        C372   1.437       .  S
C302        C305   1.370       .  D
C302        C369   1.436       .  S
C303        C306   1.372       .  D
C303        C374   1.441       .  S
C304        C376   1.491       .  S
C305        C396   1.488       .  S
C306        C386   1.484       .  S
C307        H308   1.111       .  S
C307        C313   1.540       .  S
C307       C1080   1.541       .  S
C307        C311   1.542       .  S
C309        H310   1.111       .  S
C309       C1083   1.543       .  S
C309        C314   1.541       .  S
C309        C316   1.539       .  S
C311        C314   1.377       .  D
C311        C379   1.490       .  S
C312       C1075   1.541   1_455  S
C312        C315   1.374       .  D
C312        C655   1.489       .  S
C313        C316   1.377       .  D
C313        C645   1.488       .  S
C314        C415   1.490       .  S
C315       C1077   1.543   1_455  S
C315        C688   1.493       .  S
C316        C681   1.486       .  S
O317        C338   1.265       .  A
O317      Ni1091   1.916       .  S
O318        C327   1.262       .  A
O318       Ni341   1.899       .  S
O319        H342   0.966       .  S
O319      Ni1091   1.912       .  S
O319      Ni1365   1.904   1_554  S
O319       Ni335   1.909       .  S
C320        O337   1.274       .  A
C320        O329   1.273       .  A
C320        C444   1.420       .  S
O321        C327   1.265       .  A
O321      Ni1108   1.916   1_455  S
O322        C324   1.265       .  A
O322       Ni340   1.904   1_554  S
Ni323      O1085   1.916   1_455  S
Ni323       O326   1.914       .  S
Ni323       O328   1.908   1_554  S
Ni323      O1087   1.912   1_455  S
C324        C373   1.432       .  S
O325        C331   1.273       .  A
O325       Ni341   1.912   1_554  S
O326        C587   1.273       .  A
C327        C442   1.421       .  S
O328        C330   1.266       .  A
O329       Ni596   1.913       .  S
C330        O336   1.266       .  A
C330        C446   1.433       .  S
C331        C370   1.424       .  S
H332        O333   0.967       .  S
O333      Ni1365   1.907       .  S
O333       Ni335   1.904   1_556  S
O333       Ni596   1.911       .  S
O334        C580   1.267       .  A
O334       Ni335   1.923       .  S
Ni335       O339   1.905       .  S
Ni335       O337   1.909   1_554  S
O336       Ni597   1.921       .  S
C338        O339   1.264       .  A
C338        C371   1.426       .  S
Ni340      O1089   1.916       .  S
Ni341       O831   1.904   1_456  S
Ni341       O845   1.907   1_455  S
O343        C364   1.265       .  A
O343      Ni1117   1.916   1_455  S
O344        C353   1.262       .  A
O344       Ni367   1.901       .  S
O345        H368   0.967       .  S
O345       Ni605   1.912       .  S
O345       Ni367   1.907       .  S
O345      Ni1385   1.909       .  S
C346        O363   1.275       .  A
C346        C406   1.425       .  S
O347        C353   1.265       .  A
O347      Ni1134   1.918       .  S
O348        C350   1.266       .  A
O348       Ni366   1.907       .  S
Ni349      O1111   1.916       .  S
Ni349       O354   1.906       .  S
C350        O360   1.265       .  A
C350        C481   1.432       .  S
O351        C357   1.270       .  A
O351       Ni367   1.903       .  S
O352        C357   1.272       .  A
O352       Ni605   1.913       .  S
C353        C408   1.424       .  S
O354        C356   1.266       .  A
O355        C602   1.273       .  A
O355       Ni366   1.914       .  S
C356        C409   1.432       .  S
C357        C480   1.417       .  S
H358        O359   0.968       .  S
O359       Ni367   1.904       .  S
O359      Ni1385   1.905       .  S
O359      Ni1134   1.912       .  S
O360       Ni617   1.919       .  S
Ni361       O365   1.903       .  S
Ni361       O363   1.914       .  S
Ni361       O857   1.909   1_455  S
Ni361       O871   1.905   1_455  S
O362        C612   1.266       .  A
O362       Ni367   1.920       .  S
C364        O365   1.264       .  A
C364        C477   1.423       .  S
Ni366      O1115   1.918   1_455  S
Ni366      O1127   1.912   1_455  S
C369        C370   1.200       .  T
C371        C372   1.201       .  T
C373        C374   1.203       .  T
C375        C376   1.406       .  A
C375        C380   1.399       .  A
C375        H381   1.082       .  S
C376        C377   1.405       .  A
C377        C378   1.401       .  A
C377        H382   1.083       .  S
C378        C379   1.407       .  A
C378        H383   1.083       .  S
C379        C380   1.403       .  A
C380        H384   1.083       .  S
C385        C386   1.401       .  A
C386        C387   1.406       .  A
C387        C388   1.400       .  A
C387        H392   1.083       .  S
C388        C389   1.402       .  A
C388        H393   1.083       .  S
C390        C641   1.398       .  A
C390        C645   1.407       .  A
C390        H394   1.083       .  S
H391        C641   1.083       .  S
C395        C396   1.408       .  A
C395        C400   1.401       .  A
C395        H401   1.083       .  S
C396        C397   1.401       .  A
C397        C398   1.401       .  A
C397        H402   1.083       .  S
C398        C399   1.408       .  A
C398        H403   1.083       .  S
C399        C400   1.401       .  A
H404        C656   1.083       .  S
C405        C406   1.200       .  T
C407        C408   1.199       .  T
C409        C410   1.203       .  T
C411        C412   1.407       .  A
C411        C416   1.401       .  A
C411        H417   1.083       .  S
C412        C413   1.400       .  A
C413        C414   1.401       .  A
C413        H418   1.083       .  S
C414        C415   1.409       .  A
C414        H419   1.083       .  S
C415        C416   1.401       .  A
C416        H420   1.083       .  S
C421        C422   1.405       .  A
C422        C423   1.404       .  A
C423        C424   1.399       .  A
C423        H428   1.083       .  S
C424        C425   1.405       .  A
C424        H429   1.083       .  S
C426        C677   1.400       .  A
C426        C681   1.403       .  A
C426        H430   1.083       .  S
H427        C677   1.083       .  S
C431        C432   1.408       .  A
C431        C436   1.402       .  A
C432        C433   1.402       .  A
C433        C434   1.401       .  A
C433        H438   1.083       .  S
C434        C435   1.408       .  A
C434        H439   1.083       .  S
C435        C436   1.403       .  A
C436        H440   1.083       .  S
H437        C687   1.083       .  S
C441        C442   1.198       .  T
C443        C444   1.198       .  T
C445        C446   1.204       .  T
C447        C448   1.407       .  A
C447        C452   1.397       .  A
C447        H453   1.082       .  S
C448        C449   1.402       .  A
C449        C450   1.400       .  A
C449        H454   1.079       .  S
C450        C451   1.408       .  A
C450        H455   1.083       .  S
C451        C452   1.401       .  A
C452        H456   1.079       .  S
C457        C458   1.400       .  A
C457        C462   1.396       .  A
C457        H463   1.080       .  S
C458        C459   1.401       .  A
C459        C460   1.395       .  A
C459        H464   1.083       .  S
C460        C461   1.400       .  A
C460        H465   1.080   1_455  S
C461        C462   1.403       .  A
C462        H466   1.083       .  S
C467        C468   1.404       .  A
C467        C472   1.401       .  A
C467        H473   1.083       .  S
C468        C469   1.407       .  A
C469        C470   1.400       .  A
C469        H474   1.083       .  S
C470        C471   1.403       .  A
C470        H475   1.083       .  S
C471        C472   1.407       .  A
C472       H1244   1.083   1_455  S
H476       C1240   1.083       .  S
C477        C478   1.199       .  T
C479        C480   1.196       .  T
C481        C482   1.203       .  T
C483        C484   1.407       .  A
C483        C488   1.398       .  A
C483        H489   1.083       .  S
C484        C485   1.399       .  A
C485        C486   1.399       .  A
C485        H490   1.083       .  S
C486        C487   1.409       .  A
C486        H491   1.083       .  S
C487        C488   1.399       .  A
C488       H1260   1.083   1_455  S
H492       C1256   1.083       .  S
C493        C494   1.410       .  A
C493        C498   1.402       .  A
C493        H499   1.083       .  S
C494        C495   1.400       .  A
C495        C496   1.400       .  A
C495        H500   1.082       .  S
C496        C497   1.408       .  A
C496        H501   1.083       .  S
C497        C498   1.401       .  A
C498        H502   1.083       .  S
C503        C504   1.403       .  A
C503        C508   1.397       .  A
C503        H509   1.083       .  S
C504        C505   1.405       .  A
C505        C506   1.398       .  A
C505        H510   1.083       .  S
C506        C507   1.402       .  A
C506        H511   1.083       .  S
C507        C508   1.406       .  A
C508        H512   1.083   1_455  S
C513        H514   1.113       .  S
C513        C519   1.524       .  S
C513        C518   1.513       .  S
C513        C517   1.518       .  S
C515        H516   1.111       .  S
C515        C521   1.550       .  S
C515        C520   1.545       .  S
C515        C522   1.548       .  S
C517        C520   1.369       .  D
C517        C734   1.434       .  S
C518        C521   1.369       .  D
C518        C735   1.428       .  S
C519        C522   1.374       .  D
C519        C738   1.440       .  S
C520        C740   1.483       .  S
C521        C753   1.490       .  S
C522        C760   1.483       .  S
C523        H524   1.111       .  S
C523        C529   1.550       .  S
C523        C528   1.548       .  S
C523        C527   1.541       .  S
C525        H526   1.113       .  S
C525        C531   1.520       .  S
C525        C530   1.523       .  S
C525        C532   1.515       .  S
C527        C530   1.368       .  D
C527        C714   1.471       .  S
C528        C531   1.372       .  D
C528        C724   1.491       .  S
C529        C532   1.373       .  D
C529        C704   1.491       .  S
C530        C701   1.442       .  S
C531        C697   1.431       .  S
C532        C699   1.433       .  S
C533        H534   1.111       .  S
C533        C539   1.538       .  S
C533       C1306   1.542       .  S
C535        H536   1.111       .  S
C535       C1309   1.542       .  S
C535        C542   1.535       .  S
C537        C540   1.376       .  D
C537        C743   1.486   1_655  S
C538       C1301   1.542       .  S
C538        C541   1.376       .  D
C538        C750   1.491       .  S
C539        C542   1.373       .  D
C539        C763   1.485   1_655  S
C540        C727   1.491   1_655  S
C541       C1303   1.542       .  S
C541        C707   1.492       .  S
C542        C717   1.474   1_655  S
C543        H544   1.111       .  S
C543        C549   1.554       .  S
C543        C548   1.546       .  S
C543        C547   1.548       .  S
C545        H546   1.113       .  S
C545        C551   1.521       .  S
C545        C550   1.526       .  S
C545        C552   1.516       .  S
C547        C550   1.373       .  D
C547        C678   1.486       .  S
C548        C551   1.370       .  D
C548        C668   1.487       .  S
C549        C552   1.373       .  D
C549        C691   1.492       .  S
C550        C666   1.441       .  S
C551        C663   1.435       .  S
C552        C661   1.437       .  S
C553        H554   1.113       .  S
C553        C559   1.526       .  S
C553        C558   1.517       .  S
C553        C557   1.522       .  S
C555        H556   1.111       .  S
C555        C561   1.550       .  S
C555        C560   1.549       .  S
C555        C562   1.545       .  S
C557        C560   1.374       .  D
C557        C628   1.437       .  S
C558        C561   1.370       .  D
C558        C625   1.436       .  S
C559        C562   1.372       .  D
C559        C630   1.441       .  S
C560        C632   1.491       .  S
C561        C652   1.488       .  S
C562        C642   1.484       .  S
C563        H564   1.111       .  S
C563        C569   1.540       .  S
C563       C1336   1.541       .  S
C563        C567   1.543       .  S
C565        H566   1.111       .  S
C565       C1339   1.543       .  S
C565        C570   1.541       .  S
C565        C572   1.539       .  S
C567        C570   1.377       .  D
C567        C635   1.491       .  S
C568       C1331   1.541   1_455  S
C568        C571   1.374       .  D
C569        C572   1.377       .  D
C570        C671   1.490       .  S
C571       C1333   1.543   1_455  S
O573        C594   1.265       .  A
O573      Ni1347   1.916       .  S
O574        C583   1.262       .  A
O574       Ni597   1.899       .  S
O575        H598   0.966       .  S
O575      Ni1347   1.912       .  S
O575       Ni853   1.904   1_564  S
O575       Ni591   1.908       .  S
C576        O593   1.274       .  A
C576        O585   1.273       .  A
C576        C700   1.421       .  S
O577        C583   1.265       .  A
O577      Ni1364   1.915   1_455  S
O578        C580   1.265       .  A
O578       Ni596   1.904   1_554  S
Ni579      O1341   1.916   1_455  S
Ni579       O582   1.914       .  S
Ni579       O584   1.907   1_554  S
Ni579      O1343   1.912   1_455  S
C580        C629   1.432       .  S
O581        C587   1.273       .  A
O581       Ni597   1.912   1_554  S
C583        C698   1.420       .  S
O584        C586   1.266       .  A
C586        O592   1.266       .  A
C586        C702   1.434       .  S
C587        C626   1.425       .  S
H588        O589   0.967       .  S
O589       Ni853   1.907   1_565  S
O589       Ni591   1.905   1_556  S
O590       Ni591   1.923       .  S
Ni591       O595   1.905       .  S
Ni591       O593   1.909   1_554  S
C594        O595   1.264       .  A
C594        C627   1.426       .  S
Ni596      O1345   1.916       .  S
Ni597      O1087   1.904   1_456  S
Ni597      O1101   1.907   1_455  S
O599        C620   1.266       .  A
O599      Ni1373   1.917   1_455  S
O600        C609   1.262       .  A
O600       Ni623   1.901       .  S
O601        H624   0.967       .  S
O601       Ni623   1.906       .  S
O601       Ni873   1.909   1_565  S
C602        O619   1.275       .  A
C602        C662   1.425       .  S
O603        C609   1.265       .  A
O603      Ni1390   1.918       .  S
O604        C606   1.266       .  A
O604       Ni622   1.907       .  S
Ni605      O1367   1.916       .  S
Ni605       O610   1.906       .  S
C606        O616   1.265       .  A
C606        C737   1.432       .  S
O607        C613   1.270       .  A
O607       Ni623   1.903       .  S
O608        C613   1.272       .  A
C609        C664   1.424       .  S
O610        C612   1.266       .  A
O611       Ni622   1.914       .  S
C612        C665   1.432       .  S
C613        C736   1.417       .  S
H614        O615   0.969       .  S
O615       Ni623   1.904       .  S
O615       Ni873   1.905   1_565  S
O615      Ni1390   1.911       .  S
Ni617       O621   1.903       .  S
Ni617       O619   1.914       .  S
Ni617      O1113   1.909   1_455  S
Ni617      O1127   1.905   1_455  S
O618       Ni623   1.920       .  S
C620        O621   1.264       .  A
C620        C733   1.423       .  S
Ni622      O1371   1.918   1_455  S
Ni622      O1383   1.912   1_455  S
C625        C626   1.200       .  T
C627        C628   1.201       .  T
C629        C630   1.204       .  T
C631        C632   1.406       .  A
C631        C636   1.399       .  A
C631        H637   1.082       .  S
C632        C633   1.405       .  A
C633        C634   1.401       .  A
C633        H638   1.083       .  S
C634        C635   1.407       .  A
C634        H639   1.083       .  S
C635        C636   1.403       .  A
C636        H640   1.083       .  S
C641        C642   1.401       .  A
C642        C643   1.406       .  A
C643        C644   1.400       .  A
C643        H648   1.083       .  S
C644        C645   1.402       .  A
C644        H649   1.083       .  S
C646        H650   1.083   1_545  S
C651        C652   1.408       .  A
C651        C656   1.401       .  A
C651        H657   1.083       .  S
C652        C653   1.401       .  A
C653        C654   1.401       .  A
C653        H658   1.083       .  S
C654        C655   1.408       .  A
C654        H659   1.083       .  S
C655        C656   1.401       .  A
C661        C662   1.201       .  T
C663        C664   1.199       .  T
C665        C666   1.203       .  T
C667        C668   1.407       .  A
C667        C672   1.401       .  A
C667        H673   1.083       .  S
C668        C669   1.400       .  A
C669        C670   1.401       .  A
C669        H674   1.083       .  S
C670        C671   1.408       .  A
C670        H675   1.083       .  S
C671        C672   1.401       .  A
C672        H676   1.083       .  S
C677        C678   1.405       .  A
C678        C679   1.404       .  A
C679        C680   1.399       .  A
C679        H684   1.083       .  S
C680        C681   1.405       .  A
C680        H685   1.083       .  S
C682        H686   1.083       .  S
C687        C688   1.408       .  A
C687        C692   1.402       .  A
C688        C689   1.402       .  A
C689        C690   1.401       .  A
C689        H694   1.083       .  S
C690        C691   1.408       .  A
C690        H695   1.083       .  S
C691        C692   1.403       .  A
C692        H696   1.083       .  S
C697        C698   1.197       .  T
C699        C700   1.198       .  T
C701        C702   1.204       .  T
C703        C704   1.407       .  A
C703        C708   1.397       .  A
C703        H709   1.082       .  S
C704        C705   1.402       .  A
C705        C706   1.400       .  A
C705        H710   1.080       .  S
C706        C707   1.408       .  A
C706        H711   1.083       .  S
C707        C708   1.401       .  A
C708        H712   1.079       .  S
C713        C714   1.400       .  A
C713        C718   1.396       .  A
C713        H719   1.080       .  S
C714        C715   1.401       .  A
C715        C716   1.395       .  A
C715        H720   1.083       .  S
C716        C717   1.400       .  A
C716        H721   1.080   1_455  S
C717        C718   1.403       .  A
C718        H722   1.083       .  S
C723        C724   1.404       .  A
C723        C728   1.401       .  A
C723        H729   1.083       .  S
C724        C725   1.407       .  A
C725        C726   1.400       .  A
C725        H730   1.083       .  S
C726        C727   1.403       .  A
C726        H731   1.083       .  S
C727        C728   1.407       .  A
C728       H1500   1.083   1_455  S
H732       C1496   1.083       .  S
C733        C734   1.199       .  T
C735        C736   1.195       .  T
C737        C738   1.203       .  T
C739        C740   1.407       .  A
C739        C744   1.398       .  A
C739        H745   1.083       .  S
C740        C741   1.399       .  A
C741        C742   1.399       .  A
C741        H746   1.083       .  S
C742        C743   1.409       .  A
C742        H747   1.083       .  S
C743        C744   1.399       .  A
C744       H1516   1.083   1_455  S
H748       C1512   1.083       .  S
C749        C750   1.410       .  A
C749        C754   1.402       .  A
C749        H755   1.083       .  S
C750        C751   1.400       .  A
C751        C752   1.400       .  A
C751        H756   1.082   1_565  S
C752        C753   1.408       .  A
C752        H757   1.083       .  S
C753        C754   1.401       .  A
C754        H758   1.083       .  S
C759        C760   1.403       .  A
C759        C764   1.397       .  A
C759        H765   1.083       .  S
C760        C761   1.405       .  A
C761        C762   1.398       .  A
C761        H766   1.083       .  S
C762        C763   1.402       .  A
C762        H767   1.083   1_565  S
C763        C764   1.406       .  A
C764        H768   1.083   1_455  S
C769        H770   1.113       .  S
C769        C775   1.524       .  S
C769        C774   1.513       .  S
C769        C773   1.518       .  S
C771        H772   1.111       .  S
C771        C777   1.550       .  S
C771        C776   1.545       .  S
C771        C778   1.548       .  S
C773        C776   1.369       .  D
C773        C990   1.434       .  S
C774        C777   1.369       .  D
C774        C991   1.429       .  S
C775        C778   1.374       .  D
C775        C994   1.440       .  S
C776        C996   1.483       .  S
C777       C1009   1.490       .  S
C778       C1016   1.483       .  S
C779        H780   1.111       .  S
C779        C785   1.550       .  S
C779        C784   1.548       .  S
C779        C783   1.541       .  S
C781        H782   1.113       .  S
C781        C787   1.520       .  S
C781        C786   1.523       .  S
C781        C788   1.515       .  S
C783        C786   1.368       .  D
C783        C970   1.472       .  S
C784        C787   1.372       .  D
C784        C980   1.491       .  S
C785        C788   1.373       .  D
C785        C960   1.491       .  S
C786        C957   1.442       .  S
C787        C953   1.431       .  S
C788        C955   1.432       .  S
C789        H790   1.111       .  S
C789        C795   1.538       .  S
C789       C1049   1.541       .  S
C791        H792   1.111       .  S
C791       C1052   1.541       .  S
C791        C798   1.534       .  S
C793       C1301   1.541   1_545  S
C793        C796   1.376       .  D
C793        C999   1.486       .  S
C794        C797   1.376       .  D
C794       C1006   1.491       .  S
C795        C798   1.373       .  D
C795       C1019   1.485       .  S
C796       C1303   1.541   1_545  S
C796        C983   1.491       .  S
C797        C963   1.491       .  S
C798        C973   1.474       .  S
C799        H800   1.111       .  S
C799        C805   1.553       .  S
C799        C804   1.546       .  S
C799        C803   1.548       .  S
C801        H802   1.113       .  S
C801        C807   1.521       .  S
C801        C806   1.526       .  S
C801        C808   1.516       .  S
C803        C806   1.373       .  D
C803        C934   1.486       .  S
C804        C807   1.370       .  D
C804        C924   1.487       .  S
C805        C808   1.372       .  D
C805        C947   1.492       .  S
C806        C922   1.441       .  S
C807        C919   1.435       .  S
C808        C917   1.437       .  S
C809        H810   1.113       .  S
C809        C815   1.526       .  S
C809        C814   1.516       .  S
C809        C813   1.522       .  S
C811        H812   1.111       .  S
C811        C817   1.550       .  S
C811        C816   1.549       .  S
C811        C818   1.545       .  S
C813        C816   1.374       .  D
C813        C884   1.437       .  S
C814        C817   1.370       .  D
C814        C881   1.436       .  S
C815        C818   1.372       .  D
C815        C886   1.441       .  S
C816        C888   1.491       .  S
C817        C908   1.488       .  S
C818        C898   1.484       .  S
C819        H820   1.111       .  S
C819        C825   1.540       .  S
C819        C823   1.542       .  S
C821        H822   1.111       .  S
C821        C826   1.541       .  S
C821        C828   1.539       .  S
C823        C826   1.377       .  D
C823        C891   1.490       .  S
C824        C827   1.374       .  D
C824       C1167   1.490       .  S
C825        C828   1.377       .  D
C825       C1157   1.488       .  S
C826        C927   1.490       .  S
C827       C1200   1.493       .  S
C828       C1193   1.486       .  S
O829        C850   1.265       .  A
O830        C839   1.262       .  A
O830       Ni853   1.899       .  S
O831        H854   0.966       .  S
O831       Ni847   1.908       .  S
C832        O849   1.274       .  A
C832        O841   1.273       .  A
C832        C956   1.420       .  S
O833        C839   1.265       .  A
O834        C836   1.265       .  A
O834       Ni852   1.904   1_554  S
Ni835       O838   1.914       .  S
Ni835       O840   1.908   1_554  S
C836       O1358   1.267   1_545  A
C836        C885   1.432       .  S
O837        C843   1.273       .  A
O837       Ni853   1.912   1_554  S
O838       C1099   1.272       .  A
C839        C954   1.421       .  S
O840        C842   1.266       .  A
O841      Ni1108   1.913       .  S
C842        O848   1.266       .  A
C842        C958   1.434       .  S
C843       O1350   1.273   1_545  A
C843        C882   1.424       .  S
H844        O845   0.966       .  S
O845       Ni847   1.904   1_556  S
O845      Ni1108   1.911       .  S
O846       C1092   1.267       .  A
O846       Ni847   1.922       .  S
Ni847       O851   1.905       .  S
Ni847       O849   1.909   1_554  S
O848      Ni1109   1.921       .  S
C850        O851   1.264       .  A
C850        C883   1.426       .  S
Ni852      O1353   1.912   1_545  S
Ni852      O1357   1.911   1_545  S
Ni853      O1360   1.921   1_545  S
O855        C876   1.265       .  A
O856        C865   1.262       .  A
O856       Ni879   1.901       .  S
O857        H880   0.967       .  S
O857      Ni1117   1.913       .  S
O857       Ni879   1.907       .  S
C858        O875   1.275       .  A
C858       O1379   1.273   1_545  A
C858        C918   1.425       .  S
O859        C865   1.265       .  A
O860        C862   1.266       .  A
O860       Ni878   1.907       .  S
Ni861      O1376   1.912   1_545  S
Ni861       O866   1.906       .  S
Ni861      O1369   1.912   1_545  S
C862        O872   1.265       .  A
C862        C993   1.432       .  S
O863        C869   1.270       .  A
O863       Ni879   1.903       .  S
O864        C869   1.272       .  A
O864      Ni1117   1.913       .  S
C865        C920   1.424       .  S
O866        C868   1.266       .  A
O867       C1114   1.273       .  A
O867       Ni878   1.914       .  S
C868       O1386   1.266   1_545  A
C868        C921   1.432       .  S
C869        C992   1.418       .  S
H870        O871   0.968       .  S
O871       Ni879   1.904       .  S
O872      Ni1129   1.919       .  S
Ni873      O1384   1.919   1_545  S
Ni873       O877   1.903       .  S
Ni873       O875   1.914       .  S
O874       C1124   1.266       .  A
O874       Ni879   1.919       .  S
C876        O877   1.264       .  A
C876        C989   1.423       .  S
C881        C882   1.200       .  T
C883        C884   1.201       .  T
C885        C886   1.204       .  T
C887        C888   1.406       .  A
C887        C892   1.399       .  A
C887        H893   1.083       .  S
C888        C889   1.404       .  A
C889        C890   1.400       .  A
C889        H894   1.083       .  S
C890        C891   1.407       .  A
C890        H895   1.083       .  S
C891        C892   1.403       .  A
C892        H896   1.083       .  S
C897        C898   1.401       .  A
C897       C1414   1.398       .  A
C897       H1415   1.083       .  S
C898        C899   1.406       .  A
C899        C900   1.400       .  A
C899        H904   1.083       .  S
C900        C901   1.402       .  A
C900        H905   1.083       .  S
C901       C1337   1.487   1_545  S
C901       C1414   1.407       .  A
C902       C1153   1.399       .  A
C902       C1157   1.407       .  A
C902        H906   1.083       .  S
H903       C1153   1.083       .  S
C907        C908   1.408       .  A
C907        C912   1.401   1_545  A
C907        H913   1.083   1_545  S
C908        C909   1.401       .  A
C909        C910   1.401       .  A
C909        H914   1.083       .  S
C910        C911   1.408       .  A
C910        H915   1.083       .  S
C911       C1336   1.490   1_545  S
C911        C912   1.401   1_545  A
C912       H1428   1.083       .  S
H916       C1168   1.083       .  S
C917        C918   1.200       .  T
C919        C920   1.199       .  T
C921        C922   1.204       .  T
C923        C924   1.407       .  A
C923        C928   1.401       .  A
C923        H929   1.083       .  S
C924        C925   1.401       .  A
C925        C926   1.401       .  A
C925        H930   1.083       .  S
C926        C927   1.409       .  A
C926        H931   1.083       .  S
C927        C928   1.401       .  A
C928        H932   1.083       .  S
C933        C934   1.405       .  A
C933       C1450   1.400   1_545  A
C933       H1451   1.083   1_545  S
C934        C935   1.404       .  A
C935        C936   1.399       .  A
C935        H940   1.083       .  S
C936        C937   1.405       .  A
C936        H941   1.083       .  S
C937       C1340   1.486   1_545  S
C937       C1450   1.403   1_545  A
C938       C1189   1.400       .  A
C938       C1193   1.403       .  A
C938        H942   1.083       .  S
H939       C1189   1.083       .  S
C943        C944   1.408       .  A
C943        C948   1.402       .  A
C943       H1461   1.083   1_545  S
C944       C1339   1.492   1_545  S
C944        C945   1.402       .  A
C945        C946   1.401       .  A
C945        H950   1.083       .  S
C946        C947   1.408       .  A
C946        H951   1.083       .  S
C947        C948   1.403       .  A
C948        H952   1.083       .  S
H949       C1199   1.083       .  S
C953        C954   1.197       .  T
C955        C956   1.198       .  T
C957        C958   1.204       .  T
C959        C960   1.407       .  A
C959        C964   1.397       .  A
C959        H965   1.082       .  S
C960        C961   1.402       .  A
C961        C962   1.399       .  A
C961        H966   1.079       .  S
C962        C963   1.407       .  A
C962        H967   1.083       .  S
C963        C964   1.401       .  A
C964        H968   1.079       .  S
C969        C970   1.400       .  A
C969        C974   1.396       .  A
C969        H975   1.080       .  S
C970        C971   1.401       .  A
C971        C972   1.395       .  A
C971        H976   1.083       .  S
C972        C973   1.400       .  A
C972        H977   1.080       .  S
C973        C974   1.403       .  A
C974        H978   1.083       .  S
C979        C980   1.404       .  A
C979        C984   1.401       .  A
C979        H985   1.083       .  S
C980        C981   1.407       .  A
C981        C982   1.400       .  A
C981        H986   1.083       .  S
C982        C983   1.403       .  A
C982        H987   1.083       .  S
C983        C984   1.407       .  A
C989        C990   1.199       .  T
C991        C992   1.196       .  T
C993        C994   1.203       .  T
C995        C996   1.407       .  A
C995       C1000   1.398       .  A
C995       H1001   1.083       .  S
C996        C997   1.399       .  A
C997        C998   1.399       .  A
C997       H1002   1.083       .  S
C998        C999   1.409       .  A
C998       H1003   1.083       .  S
C999       C1000   1.399       .  A
C1005      C1006   1.410       .  A
C1005      C1010   1.402       .  A
C1005      H1011   1.083       .  S
C1006      C1007   1.400       .  A
C1007      C1008   1.400       .  A
C1007      H1012   1.082       .  S
C1008      C1009   1.408       .  A
C1008      H1013   1.083       .  S
C1009      C1010   1.401       .  A
C1010      H1014   1.083       .  S
C1015      C1016   1.403       .  A
C1015      C1020   1.397       .  A
C1015      H1021   1.083       .  S
C1016      C1017   1.405       .  A
C1017      C1018   1.398       .  A
C1017      H1022   1.083       .  S
C1018      C1019   1.402       .  A
C1018      H1023   1.083       .  S
C1019      C1020   1.406       .  A
C1020      H1024   1.083       .  S
C1025      H1026   1.113       .  S
C1025      C1031   1.524       .  S
C1025      C1030   1.513       .  S
C1025      C1029   1.518       .  S
C1027      H1028   1.111       .  S
C1027      C1033   1.550       .  S
C1027      C1032   1.545       .  S
C1027      C1034   1.548       .  S
C1029      C1032   1.369       .  D
C1029      C1246   1.434       .  S
C1030      C1033   1.369       .  D
C1030      C1247   1.429       .  S
C1031      C1034   1.374       .  D
C1031      C1250   1.440       .  S
C1032      C1252   1.483       .  S
C1033      C1265   1.490       .  S
C1034      C1272   1.483       .  S
C1035      H1036   1.111       .  S
C1035      C1041   1.550       .  S
C1035      C1040   1.548       .  S
C1035      C1039   1.541       .  S
C1037      H1038   1.113       .  S
C1037      C1043   1.520       .  S
C1037      C1042   1.523       .  S
C1037      C1044   1.515       .  S
C1039      C1042   1.368       .  D
C1039      C1226   1.471       .  S
C1040      C1043   1.373       .  D
C1040      C1236   1.491       .  S
C1041      C1044   1.373       .  D
C1041      C1216   1.491       .  S
C1042      C1213   1.442       .  S
C1043      C1209   1.431       .  S
C1044      C1211   1.432       .  S
C1045      H1046   1.111       .  S
C1045      C1051   1.538       .  S
C1045      C1305   1.541       .  S
C1047      H1048   1.111       .  S
C1047      C1308   1.541       .  S
C1047      C1054   1.535       .  S
C1049      C1052   1.376       .  D
C1049      C1255   1.486       .  S
C1050      C1053   1.376       .  D
C1050      C1262   1.491       .  S
C1051      C1054   1.373       .  D
C1051      C1275   1.485       .  S
C1052      C1239   1.491       .  S
C1053      C1219   1.492       .  S
C1054      C1229   1.474       .  S
C1055      H1056   1.111       .  S
C1055      C1061   1.554       .  S
C1055      C1060   1.546       .  S
C1055      C1059   1.548       .  S
C1057      H1058   1.113       .  S
C1057      C1063   1.521       .  S
C1057      C1062   1.525       .  S
C1057      C1064   1.516       .  S
C1059      C1062   1.373       .  D
C1059      C1190   1.486       .  S
C1060      C1063   1.370       .  D
C1060      C1180   1.487       .  S
C1061      C1064   1.373       .  D
C1061      C1203   1.493       .  S
C1062      C1178   1.440       .  S
C1063      C1175   1.435       .  S
C1064      C1173   1.437       .  S
C1065      H1066   1.113       .  S
C1065      C1071   1.526       .  S
C1065      C1070   1.516       .  S
C1065      C1069   1.522       .  S
C1067      H1068   1.111       .  S
C1067      C1073   1.550       .  S
C1067      C1072   1.549       .  S
C1067      C1074   1.545       .  S
C1069      C1072   1.374       .  D
C1069      C1140   1.437       .  S
C1070      C1073   1.370       .  D
C1070      C1137   1.436       .  S
C1071      C1074   1.372       .  D
C1071      C1142   1.441       .  S
C1072      C1144   1.491       .  S
C1073      C1164   1.488       .  S
C1074      C1154   1.484       .  S
C1075      H1076   1.111       .  S
C1075      C1081   1.540       .  S
C1075      C1079   1.542       .  S
C1077      H1078   1.111       .  S
C1077      C1082   1.541       .  S
C1077      C1084   1.539       .  S
C1079      C1082   1.377       .  D
C1079      C1147   1.491       .  S
C1080      C1083   1.374       .  D
C1080      C1423   1.489       .  S
C1081      C1084   1.378       .  D
C1081      C1413   1.488       .  S
C1082      C1183   1.490       .  S
C1083      C1456   1.493       .  S
C1084      C1449   1.486       .  S
O1085      C1106   1.265       .  A
O1086      C1095   1.262       .  A
O1086     Ni1109   1.899       .  S
O1087      H1110   0.966       .  S
O1087     Ni1103   1.908       .  S
C1088      O1105   1.273       .  A
C1088      O1097   1.273       .  A
C1088      C1212   1.420       .  S
O1089      C1095   1.265       .  A
O1090      C1092   1.265       .  A
O1090     Ni1108   1.904   1_554  S
Ni1091     O1094   1.914       .  S
Ni1091     O1096   1.908   1_554  S
C1092      C1141   1.432       .  S
O1093      C1099   1.273       .  A
O1093     Ni1109   1.912   1_554  S
O1094      C1355   1.273       .  A
C1095      C1210   1.421       .  S
O1096      C1098   1.266       .  A
O1097     Ni1364   1.913       .  S
C1098      O1104   1.266       .  A
C1098      C1214   1.434       .  S
C1099      C1138   1.424       .  S
H1100      O1101   0.966       .  S
O1101     Ni1103   1.904   1_556  S
O1101     Ni1364   1.911       .  S
O1102      C1348   1.267       .  A
O1102     Ni1103   1.923       .  S
Ni1103     O1107   1.905       .  S
Ni1103     O1105   1.909   1_554  S
O1104     Ni1365   1.921       .  S
C1106      O1107   1.264       .  A
C1106      C1139   1.426       .  S
O1111      C1132   1.265       .  A
O1112      C1121   1.262       .  A
O1112     Ni1135   1.901       .  S
O1113      H1136   0.967       .  S
O1113     Ni1373   1.912       .  S
O1113     Ni1135   1.906       .  S
C1114      O1131   1.275       .  A
C1114      C1174   1.425       .  S
O1115      C1121   1.265       .  A
O1116      C1118   1.266       .  A
O1116     Ni1134   1.907       .  S
Ni1117     O1122   1.906       .  S
C1118      O1128   1.265       .  A
C1118      C1249   1.432       .  S
O1119      C1125   1.270       .  A
O1119     Ni1135   1.903       .  S
O1120      C1125   1.272       .  A
O1120     Ni1373   1.913       .  S
C1121      C1176   1.424       .  S
O1122      C1124   1.266       .  A
O1123      C1370   1.273       .  A
O1123     Ni1134   1.914       .  S
C1124      C1177   1.432       .  S
C1125      C1248   1.418       .  S
H1126      O1127   0.968       .  S
O1127     Ni1135   1.904       .  S
O1128     Ni1385   1.919       .  S
Ni1129     O1133   1.903       .  S
Ni1129     O1131   1.914       .  S
O1130      C1380   1.266       .  A
O1130     Ni1135   1.920       .  S
C1132      O1133   1.264       .  A
C1132      C1245   1.423       .  S
C1137      C1138   1.200       .  T
C1139      C1140   1.201       .  T
C1141      C1142   1.204       .  T
C1143      C1144   1.406       .  A
C1143      C1148   1.399       .  A
C1143      H1149   1.082       .  S
C1144      C1145   1.404       .  A
C1145      C1146   1.400       .  A
C1145      H1150   1.083       .  S
C1146      C1147   1.407       .  A
C1146      H1151   1.083       .  S
C1147      C1148   1.403       .  A
C1148      H1152   1.083       .  S
C1153      C1154   1.401       .  A
C1154      C1155   1.406       .  A
C1155      C1156   1.400       .  A
C1155      H1160   1.083       .  S
C1156      C1157   1.402       .  A
C1156      H1161   1.083       .  S
C1158      C1409   1.398       .  A
C1158      C1413   1.407       .  A
C1158      H1162   1.083       .  S
H1159      C1409   1.083       .  S
C1163      C1164   1.408       .  A
C1163      C1168   1.401       .  A
C1163      H1169   1.083       .  S
C1164      C1165   1.401       .  A
C1165      C1166   1.401       .  A
C1165      H1170   1.083       .  S
C1166      C1167   1.408       .  A
C1166      H1171   1.083       .  S
C1167      C1168   1.401       .  A
H1172      C1424   1.083       .  S
C1173      C1174   1.200       .  T
C1175      C1176   1.199       .  T
C1177      C1178   1.203       .  T
C1179      C1180   1.407       .  A
C1179      C1184   1.401       .  A
C1179      H1185   1.083       .  S
C1180      C1181   1.400       .  A
C1181      C1182   1.401       .  A
C1181      H1186   1.083       .  S
C1182      C1183   1.408       .  A
C1182      H1187   1.083       .  S
C1183      C1184   1.401       .  A
C1184      H1188   1.083       .  S
C1189      C1190   1.405       .  A
C1190      C1191   1.404       .  A
C1191      C1192   1.399       .  A
C1191      H1196   1.083       .  S
C1192      C1193   1.405       .  A
C1192      H1197   1.083       .  S
C1194      C1445   1.400       .  A
C1194      C1449   1.403       .  A
C1194      H1198   1.083       .  S
H1195      C1445   1.083       .  S
C1199      C1200   1.408       .  A
C1199      C1204   1.402       .  A
C1200      C1201   1.402       .  A
C1201      C1202   1.401       .  A
C1201      H1206   1.083       .  S
C1202      C1203   1.408       .  A
C1202      H1207   1.083       .  S
C1203      C1204   1.403       .  A
C1204      H1208   1.083       .  S
H1205      C1455   1.083       .  S
C1209      C1210   1.197       .  T
C1211      C1212   1.198       .  T
C1213      C1214   1.204       .  T
C1215      C1216   1.407       .  A
C1215      C1220   1.397       .  A
C1215      H1221   1.082       .  S
C1216      C1217   1.402       .  A
C1217      C1218   1.400       .  A
C1217      H1222   1.079       .  S
C1218      C1219   1.408       .  A
C1218      H1223   1.083       .  S
C1219      C1220   1.401       .  A
C1220      H1224   1.079       .  S
C1225      C1226   1.400       .  A
C1225      C1230   1.396       .  A
C1225      H1231   1.080       .  S
C1226      C1227   1.401       .  A
C1227      C1228   1.395       .  A
C1227      H1232   1.083       .  S
C1228      C1229   1.400       .  A
C1228      H1233   1.080       .  S
C1229      C1230   1.403       .  A
C1230      H1234   1.083       .  S
C1235      C1236   1.404       .  A
C1235      C1240   1.401       .  A
C1235      H1241   1.083       .  S
C1236      C1237   1.407       .  A
C1237      C1238   1.400       .  A
C1237      H1242   1.083       .  S
C1238      C1239   1.403       .  A
C1238      H1243   1.083       .  S
C1239      C1240   1.407       .  A
C1245      C1246   1.199       .  T
C1247      C1248   1.196       .  T
C1249      C1250   1.203       .  T
C1251      C1252   1.407       .  A
C1251      C1256   1.398       .  A
C1251      H1257   1.083       .  S
C1252      C1253   1.399       .  A
C1253      C1254   1.399       .  A
C1253      H1258   1.083       .  S
C1254      C1255   1.409       .  A
C1254      H1259   1.083       .  S
C1255      C1256   1.399       .  A
C1261      C1262   1.410       .  A
C1261      C1266   1.402       .  A
C1261      H1267   1.083       .  S
C1262      C1263   1.400       .  A
C1263      C1264   1.400       .  A
C1263      H1268   1.083       .  S
C1264      C1265   1.408       .  A
C1264      H1269   1.083       .  S
C1265      C1266   1.401       .  A
C1266      H1270   1.083       .  S
C1271      C1272   1.403       .  A
C1271      C1276   1.397       .  A
C1271      H1277   1.083       .  S
C1272      C1273   1.405       .  A
C1273      C1274   1.398       .  A
C1273      H1278   1.083       .  S
C1274      C1275   1.402       .  A
C1274      H1279   1.083       .  S
C1275      C1276   1.406       .  A
C1276      H1280   1.083       .  S
C1281      H1282   1.113       .  S
C1281      C1287   1.524       .  S
C1281      C1286   1.513       .  S
C1281      C1285   1.518       .  S
C1283      H1284   1.111       .  S
C1283      C1289   1.550       .  S
C1283      C1288   1.545       .  S
C1283      C1290   1.548       .  S
C1285      C1288   1.369       .  D
C1285      C1502   1.434       .  S
C1286      C1289   1.369       .  D
C1286      C1503   1.428       .  S
C1287      C1290   1.374       .  D
C1287      C1506   1.440       .  S
C1288      C1508   1.483       .  S
C1289      C1521   1.490       .  S
C1290      C1528   1.483       .  S
C1291      H1292   1.111       .  S
C1291      C1297   1.550       .  S
C1291      C1296   1.548       .  S
C1291      C1295   1.541       .  S
C1293      H1294   1.113       .  S
C1293      C1299   1.520       .  S
C1293      C1298   1.523       .  S
C1293      C1300   1.515       .  S
C1295      C1298   1.368       .  D
C1295      C1482   1.471       .  S
C1296      C1299   1.372       .  D
C1296      C1492   1.491       .  S
C1297      C1300   1.373       .  D
C1297      C1472   1.491       .  S
C1298      C1469   1.442       .  S
C1299      C1465   1.431       .  S
C1300      C1467   1.433       .  S
C1301      H1302   1.111       .  S
C1301      C1307   1.538       .  S
C1303      H1304   1.111       .  S
C1303      C1310   1.534       .  S
C1305      C1308   1.376       .  D
C1305      C1511   1.486       .  S
C1306      C1309   1.376       .  D
C1306      C1518   1.491       .  S
C1307      C1310   1.373       .  D
C1307      C1531   1.485       .  S
C1308      C1495   1.491       .  S
C1309      C1475   1.492       .  S
C1310      C1485   1.474       .  S
C1311      H1312   1.111       .  S
C1311      C1317   1.554       .  S
C1311      C1316   1.546       .  S
C1311      C1315   1.548       .  S
C1313      H1314   1.113       .  S
C1313      C1319   1.521       .  S
C1313      C1318   1.526       .  S
C1313      C1320   1.516       .  S
C1315      C1318   1.373       .  D
C1315      C1446   1.487       .  S
C1316      C1319   1.370       .  D
C1316      C1436   1.487       .  S
C1317      C1320   1.373       .  D
C1317      C1459   1.493       .  S
C1318      C1434   1.441       .  S
C1319      C1431   1.435       .  S
C1320      C1429   1.437       .  S
C1321      H1322   1.113       .  S
C1321      C1327   1.526       .  S
C1321      C1326   1.516       .  S
C1321      C1325   1.522       .  S
C1323      H1324   1.111       .  S
C1323      C1329   1.550       .  S
C1323      C1328   1.549       .  S
C1323      C1330   1.546       .  S
C1325      C1328   1.374       .  D
C1325      C1396   1.437       .  S
C1326      C1329   1.370       .  D
C1326      C1393   1.436       .  S
C1327      C1330   1.372       .  D
C1327      C1398   1.441       .  S
C1328      C1400   1.491       .  S
C1329      C1420   1.488       .  S
C1330      C1410   1.484       .  S
C1331      H1332   1.111       .  S
C1331      C1337   1.540       .  S
C1331      C1335   1.542       .  S
C1333      H1334   1.111       .  S
C1333      C1338   1.541       .  S
C1333      C1340   1.539       .  S
C1335      C1338   1.377       .  D
C1335      C1403   1.491       .  S
C1336      C1339   1.374       .  D
C1337      C1340   1.377       .  D
C1338      C1439   1.490       .  S
O1341      C1362   1.265       .  A
O1342      C1351   1.262       .  A
O1342     Ni1365   1.899       .  S
O1343      H1366   0.966       .  S
O1343     Ni1359   1.908       .  S
C1344      O1361   1.273       .  A
C1344      O1353   1.272       .  A
C1344      C1468   1.421       .  S
O1345      C1351   1.265       .  A
O1346      C1348   1.265       .  A
O1346     Ni1364   1.904   1_554  S
Ni1347     O1350   1.914       .  S
Ni1347     O1352   1.907   1_554  S
C1348      C1397   1.432       .  S
O1349      C1355   1.273       .  A
O1349     Ni1365   1.912   1_554  S
C1351      C1466   1.421       .  S
O1352      C1354   1.266       .  A
C1354      O1360   1.266       .  A
C1354      C1470   1.433       .  S
C1355      C1394   1.425       .  S
H1356      O1357   0.966       .  S
O1357     Ni1359   1.905   1_556  S
O1358     Ni1359   1.923       .  S
Ni1359     O1363   1.905       .  S
Ni1359     O1361   1.909   1_554  S
C1362      O1363   1.264       .  A
C1362      C1395   1.426       .  S
O1367      C1388   1.266       .  A
O1368      C1377   1.262       .  A
O1368     Ni1391   1.901       .  S
O1369      H1392   0.967       .  S
O1369     Ni1391   1.906       .  S
C1370      O1387   1.275       .  A
C1370      C1430   1.426       .  S
O1371      C1377   1.265       .  A
O1372      C1374   1.266       .  A
O1372     Ni1390   1.907       .  S
Ni1373     O1378   1.906       .  S
C1374      O1384   1.265       .  A
C1374      C1505   1.432       .  S
O1375      C1381   1.270       .  A
O1375     Ni1391   1.903       .  S
O1376      C1381   1.272       .  A
C1377      C1432   1.424       .  S
O1378      C1380   1.266       .  A
O1379     Ni1390   1.914       .  S
C1380      C1433   1.432       .  S
C1381      C1504   1.417       .  S
H1382      O1383   0.969       .  S
O1383     Ni1391   1.904       .  S
Ni1385     O1389   1.903       .  S
Ni1385     O1387   1.914       .  S
O1386     Ni1391   1.920       .  S
C1388      O1389   1.264       .  A
C1388      C1501   1.423       .  S
C1393      C1394   1.200       .  T
C1395      C1396   1.201       .  T
C1397      C1398   1.204       .  T
C1399      C1400   1.406       .  A
C1399      C1404   1.399       .  A
C1399      H1405   1.082       .  S
C1400      C1401   1.405       .  A
C1401      C1402   1.401       .  A
C1401      H1406   1.083       .  S
C1402      C1403   1.407       .  A
C1402      H1407   1.083       .  S
C1403      C1404   1.403       .  A
C1404      H1408   1.083       .  S
C1409      C1410   1.401       .  A
C1410      C1411   1.406       .  A
C1411      C1412   1.400       .  A
C1411      H1416   1.083       .  S
C1412      C1413   1.402       .  A
C1412      H1417   1.083       .  S
C1414      H1418   1.083   1_545  S
C1419      C1420   1.408       .  A
C1419      C1424   1.401       .  A
C1419      H1425   1.083       .  S
C1420      C1421   1.401       .  A
C1421      C1422   1.401       .  A
C1421      H1426   1.083       .  S
C1422      C1423   1.408       .  A
C1422      H1427   1.083       .  S
C1423      C1424   1.401       .  A
C1429      C1430   1.201       .  T
C1431      C1432   1.199       .  T
C1433      C1434   1.204       .  T
C1435      C1436   1.407       .  A
C1435      C1440   1.401       .  A
C1435      H1441   1.083       .  S
C1436      C1437   1.400       .  A
C1437      C1438   1.401       .  A
C1437      H1442   1.083       .  S
C1438      C1439   1.408       .  A
C1438      H1443   1.083       .  S
C1439      C1440   1.401       .  A
C1440      H1444   1.083       .  S
C1445      C1446   1.405       .  A
C1446      C1447   1.404       .  A
C1447      C1448   1.399       .  A
C1447      H1452   1.083       .  S
C1448      C1449   1.405       .  A
C1448      H1453   1.083       .  S
C1450      H1454   1.083       .  S
C1455      C1456   1.408       .  A
C1455      C1460   1.402       .  A
C1456      C1457   1.402       .  A
C1457      C1458   1.401       .  A
C1457      H1462   1.083       .  S
C1458      C1459   1.408       .  A
C1458      H1463   1.083       .  S
C1459      C1460   1.403       .  A
C1460      H1464   1.083       .  S
C1465      C1466   1.197       .  T
C1467      C1468   1.198       .  T
C1469      C1470   1.204       .  T
C1471      C1472   1.407       .  A
C1471      C1476   1.397       .  A
C1471      H1477   1.082       .  S
C1472      C1473   1.402       .  A
C1473      C1474   1.400       .  A
C1473      H1478   1.080       .  S
C1474      C1475   1.408       .  A
C1474      H1479   1.083       .  S
C1475      C1476   1.401       .  A
C1476      H1480   1.079       .  S
C1481      C1482   1.400       .  A
C1481      C1486   1.396       .  A
C1481      H1487   1.080       .  S
C1482      C1483   1.401       .  A
C1483      C1484   1.395       .  A
C1483      H1488   1.083       .  S
C1484      C1485   1.400       .  A
C1484      H1489   1.080       .  S
C1485      C1486   1.403       .  A
C1486      H1490   1.083       .  S
C1491      C1492   1.404       .  A
C1491      C1496   1.401       .  A
C1491      H1497   1.083       .  S
C1492      C1493   1.407       .  A
C1493      C1494   1.400       .  A
C1493      H1498   1.083       .  S
C1494      C1495   1.403       .  A
C1494      H1499   1.083       .  S
C1495      C1496   1.407       .  A
C1501      C1502   1.199       .  T
C1503      C1504   1.195       .  T
C1505      C1506   1.203       .  T
C1507      C1508   1.407       .  A
C1507      C1512   1.398       .  A
C1507      H1513   1.083       .  S
C1508      C1509   1.399       .  A
C1509      C1510   1.399       .  A
C1509      H1514   1.083       .  S
C1510      C1511   1.409       .  A
C1510      H1515   1.083       .  S
C1511      C1512   1.399       .  A
C1517      C1518   1.410       .  A
C1517      C1522   1.402       .  A
C1517      H1523   1.083       .  S
C1518      C1519   1.400       .  A
C1519      C1520   1.400       .  A
C1519      H1524   1.082   1_565  S
C1520      C1521   1.408       .  A
C1520      H1525   1.083       .  S
C1521      C1522   1.401       .  A
C1522      H1526   1.083       .  S
C1527      C1528   1.403       .  A
C1527      C1532   1.397       .  A
C1527      H1533   1.083       .  S
C1528      C1529   1.405       .  A
C1529      C1530   1.398       .  A
C1529      H1534   1.083       .  S
C1530      C1531   1.402       .  A
C1530      H1535   1.083   1_565  S
C1531      C1532   1.406       .  A
C1532      H1536   1.083       .  S
