geometry optimzed in LAMMPS
_audit_creation_date              2020-11-30 
_audit_creation_method            'lammps2cif' 
_symmetry_space_group_name_H-M    'P1' 
_symmetry_Int_Tables_number       1 
_symmetry_cell_setting            triclinic 
loop_ 
_symmetry_equiv_pos_as_xyz 
  x,y,z 
_cell_length_a                    39.50766769 
_cell_length_b                    40.840174139495296 
_cell_length_c                    75.17784956767831 
_cell_angle_alpha                 89.756883157537 
_cell_angle_beta                  90.69497728507241 
_cell_angle_gamma                 118.59225871484753 
loop_ 
_atom_site_label 
_atom_site_type_symbol 
_atom_site_fract_x 
_atom_site_fract_y 
_atom_site_fract_z 
_atom_site_charge 
C1          C  0.33887380  0.16666509  0.54212419     0.45900
H2          H  0.34238817  0.16897698  0.52756891    -0.03200
C3          C  0.33407215  0.16139186  0.57658122     0.45900
H4          H  0.33169719  0.15890680  0.59128778    -0.03200
C5          C  0.37831280  0.18329828  0.55178185    -0.16900
C6          C  0.31818348  0.18719267  0.55017365    -0.16600
C7          C  0.31600400  0.12606470  0.54883573    -0.17000
C8          C  0.37583425  0.18072125  0.56998607    -0.17000
C9          C  0.31582095  0.18400955  0.56855637    -0.16500
C10         C  0.31402758  0.12351050  0.56703739    -0.16900
C11         C  0.16597707  0.33162675  0.45722774     0.45900
H12         H  0.16467431  0.32956785  0.44248940    -0.03200
C13         C  0.16822890  0.33577374  0.49175684     0.45900
H14         H  0.16915318  0.33686008  0.50650854    -0.03200
C15         C  0.18484111  0.31021025  0.46630719    -0.16900
C16         C  0.18802600  0.37177635  0.46413537    -0.16600
C17         C  0.12612554  0.31676361  0.46531375    -0.17000
C18         C  0.18651519  0.31293315  0.48451402    -0.17000
C19         C  0.19056654  0.37446625  0.48251416    -0.16500
C20         C  0.12663288  0.31668184  0.48363963    -0.16900
O21         O  0.09830803  0.24681410  0.70229090    -0.80500
O22         O  0.19222345  0.37973675  0.65036606    -0.65200
O23         O  0.16427145  0.30734049  0.68741018    -1.11800
C24         C  0.12350342  0.38657216  0.71576404     1.06400
O25         O  0.21967825  0.42493419  0.66987847    -0.78400
O26         O  0.21562028  0.41761696  0.70533206    -0.66000
Ni27       Ni  0.13142964  0.25586152  0.68203331     1.34900
C28         C  0.21812086  0.39301573  0.71476369     0.85100
O29         O  0.20113732  0.31877979  0.65473673    -0.78900
O30         O  0.16156321  0.25882507  0.66143260    -0.89200
C31         C  0.21217598  0.41420192  0.65383795     0.84700
O32         O  0.09455929  0.26175426  0.66772947    -0.67400
O33         O  0.14356927  0.41165066  0.70448564    -0.86700
C34         C  0.09981692  0.28586720  0.65592068     0.85500
C35         C  0.18878218  0.28397650  0.65231485     1.07100
H36         H  0.12993227  0.35877352  0.67739391     0.38900
O37         O  0.15434098  0.36402638  0.68278297    -1.09400
O38         O  0.19280812  0.35862187  0.71424644    -0.66000
Ni39       Ni  0.14323436  0.33073433  0.70226478     1.26300
O40         O  0.13106686  0.31629619  0.65449841    -0.66200
O41         O  0.12173868  0.35466152  0.71649967    -0.78500
C42         C  0.10493612  0.26093297  0.71782540     0.84900
O43         O  0.13019822  0.29450824  0.72059084    -0.65700
Ni44       Ni  0.18089512  0.41637847  0.68712617     1.27400
Ni45       Ni  0.17806485  0.34235436  0.66834040     1.26100
H46         H  0.18763967  0.30958536  0.69277447     0.39500
C47         C  0.47563271  0.00735935  0.79096573     0.45900
H48         H  0.47287173  0.00813577  0.77626977    -0.03200
C49         C  0.48021659  0.00390964  0.82540602     0.45900
H50         H  0.48152707  0.00013756  0.83983974    -0.03200
C51         C  0.50682015  0.49079608  0.80055957    -0.16900
C52         C  0.49834357  0.04602105  0.79985371    -0.16600
C53         C  0.44613545  0.49350120  0.80057109    -0.17000
C54         C  0.50620863  0.48855940  0.81869729    -0.17000
C55         C  0.50236059  0.04447411  0.81826256    -0.16500
C56         C  0.44581217  0.49247804  0.81877342    -0.16900
C57         C  0.15217193  0.33440757  0.87313850     0.45900
H58         H  0.15422965  0.33638623  0.85850678    -0.03200
C59         C  0.14836465  0.32786138  0.90762954     0.45900
H60         H  0.14661389  0.32475928  0.92233837    -0.03200
C61         C  0.13664795  0.29399619  0.87971327    -0.16900
C62         C  0.19154662  0.35682752  0.88266794    -0.16600
C63         C  0.12596886  0.34867079  0.88166576    -0.17000
C64         C  0.13447521  0.29081944  0.89777867    -0.17000
C65         C  0.18919466  0.35357622  0.90093746    -0.16500
C66         C  0.12406786  0.34476636  0.89998004    -0.16900
C67         C  0.35614981  0.17370776  0.15895257     0.45900
H68         H  0.35435226  0.16896475  0.17352627    -0.03200
C69         C  0.36304166  0.18558549  0.12486435     0.45900
H70         H  0.36691020  0.19199416  0.11050391    -0.03200
C71         C  0.37939104  0.15733143  0.14996729    -0.16900
C72         C  0.31681258  0.15545410  0.14875840    -0.16600
C73         C  0.37628855  0.21551389  0.15380031    -0.17000
C74         C  0.38340575  0.16388804  0.13199474    -0.17000
C75         C  0.32069362  0.16254494  0.13058783    -0.16500
C76         C  0.37937831  0.22146906  0.13585754    -0.16900
C77         C  0.02602044  0.50239447  0.20764489     0.45900
H78         H  0.02470540  0.49912393  0.19300865    -0.03200
C79         C  0.02865984  0.50850503  0.24210636     0.45900
H80         H  0.02971252  0.51205568  0.25670432    -0.03200
C81         C  0.06512004  0.02140624  0.21592411    -0.16900
C82         C  0.00360494  0.02282783  0.21507845    -0.16600
C83         C  0.00763464  0.46437838  0.21741726    -0.17000
C84         C  0.06641821  0.02446992  0.23417522    -0.17000
C85         C  0.00524760  0.02592660  0.23335876    -0.16500
C86         C  0.00858015  0.46781990  0.23569566    -0.16900
O87         O  0.29627349  0.07423364  0.36411102    -0.80500
O88         O  0.37741626  0.22045599  0.31766081    -0.65200
O89         O  0.35558189  0.14373031  0.35193869    -1.11800
C90         C  0.29389133  0.20309772  0.38203482     1.06400
O91         O  0.39501700  0.26379897  0.33831023    -0.78400
O92         O  0.39048518  0.24819757  0.37307942    -0.66000
Ni93       Ni  0.33008957  0.09299778  0.34384036     1.34900
C94         C  0.39522068  0.22414524  0.38191074     0.85100
O95         O  0.39777854  0.16703659  0.32059482    -0.78900
O96         O  0.36166404  0.10498573  0.32279842    -0.89200
C97         C  0.39123404  0.25436923  0.32206194     0.84700
O98         O  0.28987542  0.09627550  0.33104379    -0.67400
O99         O  0.31438150  0.23176306  0.37263124    -0.86700
C100        C  0.29271569  0.12080408  0.31987564     0.85500
C101        C  0.38897721  0.13405893  0.31583902     1.07100
H102        H  0.31105612  0.18695688  0.34275471     0.38900
O103        O  0.33537476  0.19439943  0.34880163    -1.09400
O104        O  0.37241331  0.18919564  0.38069617    -0.66000
Ni105      Ni  0.32625672  0.15836200  0.36689178     1.26300
O106        O  0.32259762  0.15256279  0.31908962    -0.66200
O107        O  0.29613056  0.17310184  0.38123705    -0.78500
C108        C  0.29670519  0.08607554  0.37979571     0.84900
O109        O  0.31617913  0.12024159  0.38384386    -0.65700
Ni110      Ni  0.35423339  0.24537426  0.35537870     1.27400
Ni111      Ni  0.36671850  0.18144180  0.33434727     1.26100
H112        H  0.37932240  0.14837930  0.35785759     0.39500
O113        O  0.02887285  0.09441791  0.99780211    -0.80500
O114        O  0.49816139  0.46679410  0.05081550    -0.65200
O115        O  0.03609931  0.03531997  0.01287183    -1.11800
C116        C  0.41646079  0.45591302  0.98518679     1.06400
O117        O  0.47580511  0.41809455  0.03284281    -0.78400
O118        O  0.48019737  0.42495815  0.99699240    -0.66000
Ni119      Ni  0.05893675  0.08783727  0.01630166     1.34900
C120        C  0.00419302  0.44834292  0.98624085     0.85100
O121        O  0.06615019  0.02784197  0.04575792    -0.78900
O122        O  0.09111893  0.08617972  0.03519099    -0.89200
C123        C  0.48291179  0.43180742  0.04850455     0.84700
O124        O  0.02348842  0.08860204  0.03291209    -0.67400
O125        O  0.41384585  0.43081185  0.99612962    -0.86700
C126        C  0.50403322  0.06572525  0.04487663     0.85500
C127        C  0.09197358  0.06214823  0.04584519     1.07100
H128        H  0.45399843  0.48499491  0.02341966     0.38900
O129        O  0.47258692  0.47931922  0.01794554    -1.09400
O130        O  0.01118822  0.48222708  0.98545166    -0.66000
Ni131      Ni  0.48898403  0.01244782  0.99945471     1.26300
O132        O  0.50048254  0.03325201  0.04622924    -0.66200
O133        O  0.44533004  0.48844765  0.98442150    -0.78500
C134        C  0.02204006  0.08068941  0.98227723     0.84900
O135        O  0.01012190  0.04614456  0.98000147    -0.65700
Ni136      Ni  0.44646272  0.42683725  0.01441653     1.27400
Ni137      Ni  0.01943347  0.50199449  0.03194655     1.26100
H138        H  0.05501844  0.03045684  0.00715043     0.39500
C139        C  0.23276953  0.11717450  0.27868681    -0.22100
C140        C  0.19640005  0.08851951  0.28339361     0.09900
C141        C  0.19153991  0.07100444  0.30008151     0.10300
C142        C  0.22315043  0.08301268  0.31183304    -0.17000
C143        C  0.25998062  0.11157626  0.30719145    -0.27400
C144        C  0.26472412  0.12889695  0.29026696     0.18600
C145        C  0.16467610  0.07484509  0.26999607     0.12600
C146        C  0.15332256  0.03870273  0.30523899    -0.11800
H147        H  0.21911248  0.06943633  0.32464313     0.12900
C148        C  0.30338805  0.15858543  0.28384680    -0.22600
H149        H  0.23628412  0.12983233  0.26566226     0.08500
C150        C  0.13625138  0.08636518  0.26989024     0.04900
C151        C  0.10539227  0.07023491  0.25762715    -0.19800
C152        C  0.10218596  0.04276468  0.24547736    -0.12100
C153        C  0.13123131  0.03163556  0.24561173     0.13600
C154        C  0.16237692  0.04846822  0.25757900    -0.22500
C155        C  0.13860377  0.11572384  0.28265262    -0.05600
H156        H  0.08330905  0.07879614  0.25766063     0.15100
C157        C  0.12949359  0.00041742  0.23444108    -0.15800
H158        H  0.18425129  0.03960592  0.25781113     0.09400
H159        H  0.30177918  0.16713549  0.26995033     0.07300
H160        H  0.32447766  0.14788643  0.28418943     0.08500
H161        H  0.31385471  0.18386498  0.29229948     0.07500
H162        H  0.14487270  0.52046566  0.29245845     0.02400
H163        H  0.13075126  0.04746574  0.30536214     0.02900
H164        H  0.15264794  0.52983112  0.31591029     0.06400
H165        H  0.11412869  0.12163806  0.28074659     0.05400
H166        H  0.16582987  0.14200968  0.28052627    -0.00400
H167        H  0.13806342  0.10642098  0.29657386     0.01100
H168        H  0.15367138  0.01163607  0.22489310     0.04700
H169        H  0.10201983  0.98536655  0.22713185     0.06700
H170        H  0.13447759  0.48385645  0.24400902     0.07600
C171        C  0.41098170  0.34167535  0.29614974    -0.22100
C172        C  0.43252873  0.33959777  0.28199658     0.09900
C173        C  0.43870748  0.30847917  0.28037991     0.10300
C174        C  0.42432232  0.28057198  0.29346038    -0.17000
C175        C  0.40438080  0.28351472  0.30818557    -0.27400
C176        C  0.39662820  0.31393562  0.30925603     0.18600
C177        C  0.45120279  0.37197657  0.26997511     0.12600
C178        C  0.46081070  0.30507071  0.26495334    -0.11800
H179        H  0.42953706  0.25689438  0.29243806     0.12900
C180        C  0.37242152  0.31690622  0.32388229    -0.22600
H181        H  0.40609762  0.36556744  0.29711403     0.08500
C182        C  0.43187966  0.37658441  0.25512668     0.04900
C183        C  0.45102921  0.40846707  0.24452499    -0.19800
C184        C  0.48936373  0.43558604  0.24822644    -0.12100
C185        C  0.00852135  0.43091531  0.26333462     0.13600
C186        C  0.48899246  0.39905731  0.27397301    -0.22500
C187        C  0.39129082  0.34772818  0.25041337    -0.05600
H188        H  0.43600343  0.41219560  0.23319690     0.15100
C189        C  0.04986351  0.45778292  0.26812582    -0.15800
H190        H  0.00339710  0.39514031  0.28548847     0.09400
H191        H  0.34401743  0.29123179  0.32419014     0.07300
H192        H  0.36708435  0.34101461  0.32184644     0.08500
H193        H  0.38730212  0.32084223  0.33692695     0.07500
H194        H  0.49052426  0.32892159  0.26498683     0.02400
H195        H  0.44614791  0.30507333  0.25226085     0.02900
H196        H  0.46283360  0.27888816  0.26561617     0.06400
H197        H  0.38056220  0.35547976  0.23824002     0.05400
H198        H  0.37175236  0.34473208  0.26151850    -0.00400
H199        H  0.39025346  0.32047751  0.24795565     0.01100
H200        H  0.05257572  0.48413572  0.27344316     0.04700
H201        H  0.06840460  0.46340793  0.25640342     0.06700
H202        H  0.06118582  0.44632704  0.27865074     0.07600
C203        C  0.44649202  0.04769907  0.26649239    -0.22100
C204        C  0.46032636  0.08587952  0.26370643     0.09900
C205        C  0.48845440  0.10448260  0.25062512     0.10300
C206        C  0.50295151  0.08448418  0.24097580    -0.17000
C207        C  0.48929455  0.04618701  0.24392325    -0.27400
C208        C  0.46012011  0.02750027  0.25663633     0.18600
C209        C  0.44445370  0.10499255  0.27495073     0.12600
C210        C  0.50244513  0.14504502  0.24663751    -0.11800
H211        H  0.02492641  0.09866914  0.23108070     0.12900
C212        C  0.44199815  0.98603285  0.25947604    -0.22600
H213        H  0.42460344  0.03356272  0.27645390     0.08500
C214        C  0.40582286  0.09744541  0.27285947     0.04900
C215        C  0.38903442  0.10896699  0.28607134    -0.19800
C216        C  0.41013626  0.12835605  0.30118205    -0.12100
C217        C  0.44957605  0.13831114  0.30267945     0.13600
C218        C  0.46629002  0.12630573  0.28954471    -0.22500
C219        C  0.38218264  0.07678139  0.25680002    -0.05600
H220        H  0.35891242  0.10188199  0.28487424     0.15100
C221        C  0.47334469  0.15965751  0.31857311    -0.15800
H222        H  0.49589284  0.13190269  0.29111444     0.09400
H223        H  0.41692708  0.97574491  0.26850200     0.07300
H224        H  0.46313707  0.97892751  0.26571408     0.08500
H225        H  0.43159282  0.97125412  0.24657295     0.07500
H226        H  0.51628334  0.16209943  0.25867270     0.02400
H227        H  0.47768796  0.14917399  0.24246823     0.02900
H228        H  0.52383086  0.15510509  0.23575273     0.06400
H229        H  0.85295705  0.07426140  0.25699994     0.05400
H230        H  0.37894719  0.04828574  0.25626521    -0.00400
H231        H  0.89684717  0.09229955  0.24458299     0.01100
H232        H  0.50341675  0.16438460  0.31782737     0.04700
H233        H  0.46036458  0.14386900  0.33093874     0.06700
H234        H  0.47439603  0.18727646  0.31925329     0.07600
C235        C  0.39117083  0.30201401  0.10633818    -0.22100
C236        C  0.43138302  0.32274868  0.10532549     0.09900
C237        C  0.45448334  0.31333896  0.11637377     0.10300
C238        C  0.43679111  0.28135452  0.12706053    -0.17000
C239        C  0.39651810  0.25895669  0.12721130    -0.27400
C240        C  0.37346566  0.27069223  0.11741540     0.18600
C241        C  0.44829268  0.35178041  0.09139340     0.12600
C242        C  0.49774244  0.33648308  0.11652843    -0.11800
H243        H  0.45474460  0.27286170  0.13454139     0.12900
C244        C  0.33020317  0.25096684  0.11839952    -0.22600
H245        H  0.37346365  0.30989122  0.09813987     0.08500
C246        C  0.45561774  0.34272516  0.07430524     0.04900
C247        C  0.46841113  0.36988547  0.06090320    -0.19800
C248        C  0.47380672  0.40605623  0.06402839    -0.12100
C249        C  0.46728368  0.41526644  0.08143986     0.13600
C250        C  0.45461797  0.38792594  0.09486147    -0.22500
C251        C  0.44885972  0.30397316  0.07008241    -0.05600
H252        H  0.47343366  0.36243159  0.04775377     0.15100
C253        C  0.97213595  0.45322566  0.08601264    -0.15800
H254        H  0.44876017  0.39446520  0.10805322     0.09400
H255        H  0.31754012  0.23786912  0.10536690     0.07300
H256        H  0.32020138  0.27136832  0.12174705     0.08500
H257        H  0.31937791  0.22946124  0.12889810     0.07500
H258        H  0.50597974  0.36544301  0.12064447     0.02400
H259        H  0.50919298  0.33699426  0.10306898     0.02900
H260        H  0.51145501  0.32524843  0.12597490     0.06400
H261        H  0.45570221  0.30144750  0.05603560     0.05400
H262        H  0.41815719  0.28344336  0.07231191    -0.00400
H263        H  0.46732388  0.29688756  0.07876859     0.01100
H264        H  0.95322737  0.45973937  0.07731768     0.04700
H265        H  0.00269795  0.47452028  0.08432016     0.06700
H266        H  0.96443202  0.45480969  0.10002591     0.07600
C267        C  0.15620731  0.07441370  0.08684777    -0.22100
C268        C  0.18703883  0.10997275  0.08358297     0.09900
C269        C  0.18704215  0.12903373  0.06796847     0.10300
C270        C  0.15623246  0.11209965  0.05588398    -0.17000
C271        C  0.12482029  0.07636118  0.05893812    -0.27400
C272        C  0.12498345  0.05729814  0.07478818     0.18600
C273        C  0.22117732  0.12513181  0.09557887     0.12600
C274        C  0.21962896  0.16741833  0.06407721    -0.11800
H275        H  0.15690007  0.12722786  0.04390672     0.12900
C276        C  0.09248324  0.01939480  0.07936984    -0.22600
H277        H  0.15689151  0.05984521  0.09882341     0.08500
C278        C  0.22304995  0.14370912  0.11159959     0.04900
C279        C  0.25670560  0.15758583  0.12217317    -0.19800
C280        C  0.28790445  0.15176317  0.11752262    -0.12100
C281        C  0.28566099  0.13321106  0.10118909     0.13600
C282        C  0.25252763  0.12064301  0.09047419    -0.22500
C283        C  0.18937286  0.14829895  0.11762500    -0.05600
H284        H  0.25809141  0.17188161  0.13448830     0.15100
C285        C  0.31572417  0.12287193  0.09546376    -0.15800
H286        H  0.25049515  0.10618877  0.07810911     0.09400
H287        H  0.07295135  0.51383279  0.07739460     0.07300
H288        H  0.10743665  0.50227956  0.08710679     0.08500
H289        H  0.09771007  0.49545668  0.06369847     0.07500
H290        H  0.24709917  0.16641023  0.06296278     0.02400
H291        H  0.22233493  0.18680419  0.07498451     0.02900
H292        H  0.21479087  0.17877089  0.05142002     0.06400
H293        H  0.19551922  0.16339265  0.13051432     0.05400
H294        H  0.16380663  0.12045997  0.11936666    -0.00400
H295        H  0.18258328  0.16428157  0.10753020     0.01100
H296        H  0.30621204  0.10429789  0.08362268     0.04700
H297        H  0.32075197  0.10732799  0.10626343     0.06700
H298        H  0.34277284  0.14768107  0.09164808     0.07600
C299        C  0.47508400  0.09015673  0.08864298    -0.22100
C300        C  0.45178372  0.10522897  0.08269645     0.09900
C301        C  0.44533528  0.10711602  0.06431187     0.10300
C302        C  0.46228335  0.09347352  0.05218394    -0.17000
C303        C  0.48534315  0.07800058  0.05811966    -0.27400
C304        C  0.49228066  0.07678322  0.07654760     0.18600
C305        C  0.43503731  0.11959755  0.09598618     0.12600
C306        C  0.42056118  0.12343915  0.05755724    -0.11800
H307        H  0.45758066  0.09488385  0.03802621     0.12900
C308        C  0.51920843  0.06309152  0.08345230    -0.22600
H309        H  0.48024479  0.08941131  0.10280038     0.08500
C310        C  0.40147076  0.09554148  0.10527681     0.04900
C311        C  0.38597375  0.11072656  0.11730383    -0.19800
C312        C  0.40292807  0.14931132  0.12011110    -0.12100
C313        C  0.43720956  0.17317831  0.11113752     0.13600
C314        C  0.45298702  0.15801413  0.09920724    -0.22500
C315        C  0.38158375  0.05403365  0.10219113    -0.05600
H316        H  0.35956754  0.09246315  0.12396374     0.15100
C317        C  0.45734477  0.21450758  0.11414776    -0.15800
H318        H  0.47910799  0.17618347  0.09213259     0.09400
H319        H  0.51989667  0.53854738  0.07990911     0.07300
H320        H  0.52235183  0.06530231  0.09816492     0.08500
H321        H  0.54821340  0.07982897  0.07760694     0.07500
H322        H  0.43328356  0.15307365  0.06171057     0.02400
H323        H  0.39111800  0.10760591  0.06307968     0.02900
H324        H  0.41811684  0.12232249  0.04281254     0.06400
H325        H  0.35530241  0.03935862  0.11039104     0.05400
H326        H  0.40140784  0.04280910  0.10573230    -0.00400
H327        H  0.37293255  0.04793241  0.08797585     0.01100
H328        H  0.48505620  0.22876022  0.10693114     0.04700
H329        H  0.46357841  0.22043538  0.12856357     0.06700
H330        H  0.43870200  0.22594861  0.10913855     0.07600
C331        C  0.48126806  0.07924352  0.18019349    -0.22100
C332        C  0.44644588  0.07561102  0.18657783     0.09900
C333        C  0.42866306  0.05135583  0.20105522     0.10300
C334        C  0.44634462  0.03183750  0.20871470    -0.17000
C335        C  0.48311117  0.03821272  0.20351219    -0.27400
C336        C  0.00046968  0.06208546  0.18878311     0.18600
C337        C  0.42934310  0.09737762  0.17783777     0.12600
C338        C  0.39227851  0.04750564  0.20924782    -0.11800
H339        H  0.43445967  0.51492135  0.21934149     0.12900
C340        C  0.04041356  0.07231401  0.18273615    -0.22600
H341        H  0.99416003  0.09683087  0.16873083     0.08500
C342        C  0.44890321  0.13692481  0.17716740     0.04900
C343        C  0.43209188  0.15561833  0.16780608    -0.19800
C344        C  0.39530048  0.13599585  0.16002102    -0.12100
C345        C  0.37447561  0.09677954  0.16218813     0.13600
C346        C  0.39253599  0.07799072  0.17010251    -0.22500
C347        C  0.48669430  0.15959836  0.18685160    -0.05600
H348        H  0.44747690  0.18576050  0.16676759     0.15100
C349        C  0.33278880  0.07379273  0.15700000    -0.15800
H350        H  0.37733808  0.04778804  0.17046924     0.09400
H351        H  0.05014573  0.09334069  0.17190538     0.07300
H352        H  0.04171803  0.04769791  0.17749710     0.08500
H353        H  0.06058819  0.08485080  0.19404579     0.07500
H354        H  0.36755106  0.03363624  0.19990467     0.02400
H355        H  0.39624842  0.07548817  0.21279942     0.02900
H356        H  0.39036528  0.53637530  0.22262583     0.06400
H357        H  0.49637120  0.18995544  0.18596747     0.05400
H358        H  0.50960304  0.15479588  0.18106973    -0.00400
H359        H  0.48340187  0.15180125  0.20114486     0.01100
H360        H  0.31563084  0.06016287  0.16900212     0.04700
H361        H  0.32917936  0.05180928  0.14735678     0.06700
H362        H  0.32120119  0.09101342  0.15107051     0.07600
C363        C  0.21206595  0.08443955  0.16006140    -0.22100
C364        C  0.20831032  0.09676401  0.17695567     0.09900
C365        C  0.24193008  0.12476857  0.18542441     0.10300
C366        C  0.27580426  0.14403839  0.17559083    -0.17000
C367        C  0.27938091  0.13263560  0.15838617    -0.27400
C368        C  0.24770795  0.09955186  0.15149646     0.18600
C369        C  0.16973212  0.07811909  0.18569032     0.12600
C370        C  0.24402019  0.13402992  0.20495187    -0.11800
H371        H  0.29989798  0.16762009  0.18183256     0.12900
C372        C  0.25013762  0.07719273  0.13614512    -0.22600
H373        H  0.18730476  0.06150213  0.15374777     0.08500
C374        C  0.15387911  0.09817860  0.19452532     0.04900
C375        C  0.12114672  0.07875522  0.20501907    -0.19800
C376        C  0.09995041  0.03973053  0.20462899    -0.12100
C377        C  0.11258548  0.01967706  0.19368756     0.13600
C378        C  0.14811451  0.03896353  0.18511426    -0.22500
C379        C  0.16956177  0.13969455  0.19269734    -0.05600
H380        H  0.11105486  0.09433915  0.21300398     0.15100
C381        C  0.09064459  0.97800345  0.19124571    -0.15800
H382        H  0.15911139  0.02301588  0.17804858     0.09400
H383        H  0.22995530  0.07547789  0.12533895     0.07300
H384        H  0.24168075  0.04843099  0.14072067     0.08500
H385        H  0.27939440  0.08848565  0.13077328     0.07500
H386        H  0.21755026  0.11514060  0.21222098     0.02400
H387        H  0.24979772  0.16325998  0.20661196     0.02900
H388        H  0.26798434  0.13116342  0.21131388     0.06400
H389        H  0.17980951  0.15338034  0.20585061     0.05400
H390        H  0.14624396  0.14537673  0.18780008    -0.00400
H391        H  0.19334089  0.15245664  0.18303466     0.01100
H392        H  0.08533821  0.47435010  0.17622544     0.04700
H393        H  0.06657259  0.46733811  0.19826219     0.06700
H394        H  0.06389615  0.96474185  0.19895243     0.07600
C395        C  0.39258998  0.29842754  0.18246558    -0.22100
C396        C  0.43311308  0.31821137  0.18301038     0.09900
C397        C  0.45395603  0.30117771  0.17587564     0.10300
C398        C  0.43375792  0.26496085  0.16881822    -0.17000
C399        C  0.39360872  0.24707876  0.16661837    -0.27400
C400        C  0.37269774  0.26405941  0.17353506     0.18600
C401        C  0.45295717  0.35642789  0.19105375     0.12600
C402        C  0.49726262  0.32197666  0.17417680    -0.11800
H403        H  0.44964464  0.25179741  0.16347459     0.12900
C404        C  0.32977747  0.24769875  0.17101948    -0.22600
H405        H  0.37630958  0.31063410  0.18835540     0.08500
C406        C  0.44751505  0.38628996  0.18458644     0.04900
C407        C  0.46585085  0.42110700  0.19334831    -0.19800
C408        C  0.49137368  0.42766000  0.20772188    -0.12100
C409        C  0.00010318  0.39892968  0.21267889     0.13600
C410        C  0.47874183  0.36322422  0.20525522    -0.22500
C411        C  0.42352087  0.38209901  0.16814652    -0.05600
H412        H  0.46002385  0.44327147  0.18899743     0.15100
C413        C  0.03291480  0.40485881  0.22495018    -0.15800
H414        H  0.48330917  0.34072804  0.21029242     0.09400
H415        H  0.31690218  0.22152813  0.16320692     0.07300
H416        H  0.32343616  0.26796115  0.16380311     0.08500
H417        H  0.31567995  0.24181692  0.18419661     0.07500
H418        H  0.01164980  0.32777836  0.18736543     0.02400
H419        H  0.50604931  0.34864219  0.16702374     0.02900
H420        H  0.50802282  0.30571180  0.16650218     0.06400
H421        H  0.42490648  0.40897681  0.16425205     0.05400
H422        H  0.39284355  0.36190341  0.17044428    -0.00400
H423        H  0.43436152  0.37239944  0.15686460     0.01100
H424        H  0.02168985  0.38701568  0.23692066     0.04700
H425        H  0.05019703  0.43418783  0.22904113     0.06700
H426        H  0.05269182  0.39714124  0.21795620     0.07600
C427        C  0.27864744  0.42739707  0.92537751    -0.22100
C428        C  0.28822365  0.40462158  0.93598081     0.09900
C429        C  0.26424508  0.36567409  0.93570244     0.10300
C430        C  0.23134377  0.35033196  0.92474629    -0.17000
C431        C  0.22239162  0.37265351  0.91354569    -0.27400
C432        C  0.24565139  0.41192288  0.91432445     0.18600
C433        C  0.32239644  0.42175698  0.94797090     0.12600
C434        C  0.27368346  0.34022775  0.94680135    -0.11800
H435        H  0.21278226  0.32064644  0.92477761     0.12900
C436        C  0.23561330  0.43824985  0.90437437    -0.22600
H437        H  0.29662368  0.45741142  0.92597530     0.08500
C438        C  0.35941486  0.42992851  0.94212184     0.04900
C439        C  0.39009305  0.44257578  0.95447784    -0.19800
C440        C  0.38423272  0.44641430  0.97256672    -0.12100
C441        C  0.34733726  0.43916434  0.97830237     0.13600
C442        C  0.31690919  0.42703511  0.96589545    -0.22500
C443        C  0.36611236  0.42408664  0.92299873    -0.05600
H444        H  0.41843602  0.44816384  0.95014282     0.15100
C445        C  0.33905809  0.44402423  0.99734447    -0.15800
H446        H  0.28840079  0.42073852  0.97031434     0.09400
H447        H  0.25832898  0.45425853  0.89451501     0.07300
H448        H  0.23374841  0.45801951  0.91389808     0.08500
H449        H  0.20740050  0.42369228  0.89741066     0.07500
H450        H  0.27400942  0.34687800  0.96112091     0.02400
H451        H  0.30243173  0.34393269  0.94310930     0.02900
H452        H  0.25221345  0.31043422  0.94477215     0.06400
H453        H  0.39666320  0.43156010  0.92063775     0.05400
H454        H  0.35860155  0.44168600  0.91425252    -0.00400
H455        H  0.34782048  0.39433810  0.91932991     0.01100
H456        H  0.32782029  0.46425103  0.99792138     0.04700
H457        H  0.36489768  0.45465802  0.00612221     0.06700
H458        H  0.31694059  0.41683840  0.00267267     0.07600
C459        C  0.11211802  0.20305983  0.92385071    -0.22100
C460        C  0.07209987  0.18748566  0.92558803     0.09900
C461        C  0.05249649  0.20450073  0.91710847     0.10300
C462        C  0.07384095  0.23822377  0.90810363    -0.17000
C463        C  0.11404380  0.25451068  0.90692082    -0.27400
C464        C  0.13327374  0.23593312  0.91423307     0.18600
C465        C  0.05274021  0.15701657  0.93853769     0.12600
C466        C  0.00919745  0.18701948  0.91748543    -0.11800
H467        H  0.05915341  0.25211345  0.90202486     0.12900
C468        C  0.17573166  0.24964404  0.91218187    -0.22600
H469        H  0.12710991  0.18994104  0.93042409     0.08500
C470        C  0.04911018  0.12128005  0.93604427     0.04900
C471        C  0.03670131  0.09590619  0.95026078    -0.19800
C472        C  0.02830466  0.10577017  0.96691067    -0.12100
C473        C  0.02928845  0.14083742  0.96882708     0.13600
C474        C  0.04175705  0.16592336  0.95463099    -0.22500
C475        C  0.05865880  0.11014917  0.91849779    -0.05600
H476        H  0.03536232  0.06896340  0.94858937     0.15100
C477        C  0.51826007  0.15290142  0.98578345    -0.15800
H478        H  0.04465196  0.19350928  0.95634986     0.09400
H479        H  0.18017698  0.22766857  0.90567661     0.07300
H480        H  0.18992039  0.25551906  0.92548890     0.08500
H481        H  0.18978509  0.27509146  0.90393178     0.07500
H482        H  0.99916309  0.18537414  0.93133250     0.02400
H483        H  0.99627466  0.15849523  0.91175221     0.02900
H484        H  0.99858188  0.20338477  0.90958723     0.06400
H485        H  0.05312570  0.08080087  0.91866496     0.05400
H486        H  0.08952400  0.12824812  0.91540598    -0.00400
H487        H  0.04062740  0.11291909  0.90776728     0.01100
H488        H  0.03890665  0.15754192  0.99650505     0.04700
H489        H  0.48906986  0.13130991  0.98983126     0.06700
H490        H  0.51730941  0.17947325  0.98401686     0.07600
C491        C  0.05123515  0.36735533  0.92252773    -0.22100
C492        C  0.07491332  0.39349157  0.93531339     0.09900
C493        C  0.11410284  0.40267119  0.93668764     0.10300
C494        C  0.12887596  0.38596190  0.92507249    -0.17000
C495        C  0.10537317  0.35989926  0.91218903    -0.27400
C496        C  0.06577294  0.34988471  0.91115938     0.18600
C497        C  0.05748870  0.40855007  0.94814346     0.12600
C498        C  0.14036837  0.43019722  0.95039297    -0.11800
H499        H  0.15916377  0.39360433  0.92593628     0.12900
C500        C  0.03780629  0.31996288  0.89882247    -0.22600
H501        H  0.02090874  0.35966970  0.92180122     0.08500
C502        C  0.05061517  0.43854973  0.94390596     0.04900
C503        C  0.03407554  0.45152676  0.95669501    -0.19800
C504        C  0.02387054  0.43494499  0.97363075    -0.12100
C505        C  0.03150439  0.40510037  0.97785392     0.13600
C506        C  0.04812175  0.39242579  0.96504265    -0.22500
C507        C  0.06084740  0.45683794  0.92592166    -0.05600
H508        H  0.52842427  0.47425142  0.95326577     0.15100
C509        C  0.02322805  0.38678559  0.99591033    -0.15800
H510        H  0.05383976  0.36958385  0.96819019     0.09400
H511        H  0.02574394  0.33232962  0.88912149     0.07300
H512        H  0.01389172  0.29825809  0.90665996     0.08500
H513        H  0.05118192  0.30584240  0.89141828     0.07500
H514        H  0.12976732  0.41977961  0.96395266     0.02400
H515        H  0.14108972  0.45747231  0.94838950     0.02900
H516        H  0.17031658  0.43463417  0.94947999     0.06400
H517        H  0.55393568  0.48004532  0.92473261     0.05400
H518        H  0.04452921  0.43600722  0.91541350    -0.00400
H519        H  0.09222346  0.46832075  0.92370906     0.01100
H520        H  0.99168745  0.37122799  0.99812104     0.04700
H521        H  0.03746088  0.40822055  0.00644064     0.06700
H522        H  0.03419778  0.36639690  0.99718099     0.07600
C523        C  0.07265909  0.37848788  0.84766801    -0.22100
C524        C  0.07892530  0.41244981  0.85495520     0.09900
C525        C  0.10010613  0.42514186  0.87097708     0.10300
C526        C  0.11760499  0.40532809  0.87837428    -0.17000
C527        C  0.11023597  0.37038807  0.87161065    -0.27400
C528        C  0.08666242  0.35656007  0.85614773     0.18600
C529        C  0.06085593  0.43288783  0.84616669     0.12600
C530        C  0.10166809  0.45769438  0.88107588    -0.11800
H531        H  0.13595490  0.41661136  0.89000575     0.12900
C532        C  0.07279740  0.31760022  0.84936448    -0.22600
H533        H  0.05505420  0.36828453  0.83571306     0.08500
C534        C  0.08295818  0.46693420  0.83725842     0.04900
C535        C  0.06437445  0.48588948  0.82997517    -0.19800
C536        C  0.02403010  0.46940359  0.82912156    -0.12100
C537        C  0.00188298  0.43442413  0.83740115     0.13600
C538        C  0.02061241  0.41723129  0.84630151    -0.22500
C539        C  0.12553437  0.48188667  0.83423141    -0.05600
H540        H  0.08147989  0.51339369  0.82459634     0.15100
C541        C  0.45870650  0.41363823  0.83651878    -0.15800
H542        H  0.00361824  0.39071552  0.85288989     0.09400
H543        H  0.09707650  0.31292640  0.84557228     0.07300
H544        H  0.05392702  0.31155892  0.83741179     0.08500
H545        H  0.05529100  0.29782170  0.85980582     0.07500
H546        H  0.07189624  0.45174456  0.88424927     0.02400
H547        H  0.11553184  0.48370487  0.87322993     0.02900
H548        H  0.11801236  0.46264185  0.89378988     0.06400
H549        H  0.13801880  0.50825241  0.82651331     0.05400
H550        H  0.13001729  0.46110666  0.82657841    -0.00400
H551        H  0.14177910  0.48748190  0.84693119     0.01100
H552        H  0.44874045  0.38540732  0.83082756     0.04700
H553        H  0.44704480  0.42784162  0.82798724     0.06700
H554        H  0.44697726  0.41092759  0.85011163     0.07600
C555        C  0.04405137  0.12097348  0.85456773    -0.22100
C556        C  0.07347997  0.14996581  0.84504627     0.09900
C557        C  0.08459298  0.14156271  0.82865700     0.10300
C558        C  0.06305815  0.10567910  0.82138515    -0.17000
C559        C  0.02920300  0.07821185  0.82943228    -0.27400
C560        C  0.52190384  0.08512148  0.84718963     0.18600
C561        C  0.09061055  0.18874135  0.85228452     0.12600
C562        C  0.11802250  0.17052465  0.81835021    -0.11800
H563        H  0.07203363  0.09957026  0.80884321     0.12900
C564        C  0.49285222  0.05576754  0.85914911    -0.22600
H565        H  0.53777983  0.12675134  0.86783431     0.08500
C566        C  0.06741181  0.20589189  0.85537411     0.04900
C567        C  0.08361359  0.24077543  0.86380822    -0.19800
C568        C  0.12299630  0.26062984  0.86797450    -0.12100
C569        C  0.14685402  0.24487209  0.86359790     0.13600
C570        C  0.13015503  0.20861724  0.85646702    -0.22500
C571        C  0.02560319  0.18784213  0.84965310    -0.05600
H572        H  0.06498076  0.25177675  0.86790098     0.15100
C573        C  0.18989590  0.26537261  0.86631178    -0.15800
H574        H  0.14816918  0.19569454  0.85442074     0.09400
H575        H  0.48853525  0.06787974  0.87157102     0.07300
H576        H  0.50341170  0.03609155  0.86323477     0.08500
H577        H  0.46460990  0.04073317  0.85252023     0.07500
H578        H  0.14542537  0.17861524  0.82563874     0.02400
H579        H  0.11424104  0.19547607  0.81626763     0.02900
H580        H  0.12053405  0.15981030  0.80516301     0.06400
H581        H  0.01298036  0.20664785  0.85179614     0.05400
H582        H  0.00825621  0.16206465  0.85735307    -0.00400
H583        H  0.02308330  0.18105323  0.83525104     0.01100
H584        H  0.19889417  0.24911586  0.87519632     0.04700
H585        H  0.20025754  0.29345417  0.87210250     0.06700
H586        H  0.20415427  0.26881230  0.85328561     0.07600
C587        C  0.27102254  0.42316816  0.85147233    -0.22100
C588        C  0.30132547  0.41635117  0.85648594     0.09900
C589        C  0.29597915  0.39097307  0.87030246     0.10300
C590        C  0.25948899  0.37094330  0.87791740    -0.17000
C591        C  0.22876097  0.37747860  0.87297927    -0.27400
C592        C  0.23489781  0.40450205  0.85968711     0.18600
C593        C  0.33821907  0.43567473  0.84685386     0.12600
C594        C  0.32908613  0.38610936  0.87750584    -0.11800
H595        H  0.25511723  0.35036985  0.88803284     0.12900
C596        C  0.20460737  0.41536081  0.85452819    -0.22600
H597        H  0.27578768  0.44331365  0.84105495     0.08500
C598        C  0.34801469  0.41706471  0.83381180     0.04900
C599        C  0.38368296  0.43610342  0.82537625    -0.19800
C600        C  0.40919208  0.47389302  0.82898226    -0.12100
C601        C  0.39746530  0.49336020  0.84083922     0.13600
C602        C  0.36268172  0.47367970  0.85003229    -0.22500
C603        C  0.32004054  0.37780167  0.82808583    -0.05600
H604        H  0.39120275  0.42155947  0.81548158     0.15100
C605        C  0.40494179  0.03358469  0.83444772    -0.15800
H606        H  0.35398062  0.48833930  0.85937400     0.09400
H607        H  0.21629304  0.43978895  0.84546562     0.07300
H608        H  0.19402000  0.42313137  0.86651552     0.08500
H609        H  0.18031657  0.39239431  0.84735254     0.07500
H610        H  0.35214600  0.41331163  0.88250789     0.02400
H611        H  0.34118002  0.37590449  0.86701712     0.02900
H612        H  0.32000009  0.36586885  0.88866670     0.06400
H613        H  0.33197785  0.36791168  0.81732970     0.05400
H614        H  0.29310276  0.37686255  0.82297052    -0.00400
H615        H  0.31290281  0.35820645  0.83939209     0.05000
H616        H  0.38330357  0.03887962  0.82728915     0.04700
H617        H  0.43167949  0.04578798  0.82656356     0.06700
H618        H  0.41130310  0.04824984  0.84745051     0.07600
C619        C  0.35511245  0.47859922  0.77516637    -0.22100
C620        C  0.34650704  0.44639221  0.76528549     0.09900
C621        C  0.37058944  0.42984888  0.76708684     0.10300
C622        C  0.40243165  0.44566458  0.77881516    -0.17000
C623        C  0.41109364  0.47778357  0.78877624    -0.27400
C624        C  0.38730398  0.49473361  0.78674044     0.18600
C625        C  0.31339858  0.43159186  0.75244473     0.12600
C626        C  0.36301294  0.39582057  0.75642433    -0.11800
H627        H  0.42071823  0.43287445  0.78018842     0.12900
C628        C  0.39576180  0.53048390  0.79601823    -0.22600
H629        H  0.33702071  0.49170208  0.77354993     0.08500
C630        C  0.27604656  0.40415417  0.75731894     0.04900
C631        C  0.24580615  0.39113370  0.74462402    -0.19800
C632        C  0.25178636  0.40557500  0.72723169    -0.12100
C633        C  0.28947752  0.43306079  0.72239387     0.13600
C634        C  0.31970168  0.44543886  0.73502663    -0.22500
C635        C  0.26805411  0.38914679  0.77601299    -0.05600
H636        H  0.21707571  0.37038675  0.74846399     0.15100
C637        C  0.29842968  0.44897741  0.70384061    -0.15800
H638        H  0.34850031  0.46633341  0.73135207     0.09400
H639        H  0.37140986  0.52553653  0.80481886     0.07300
H640        H  0.40730090  0.05060000  0.77410263     0.08500
H641        H  0.42451283  0.04531770  0.79547754     0.07500
H642        H  0.36429410  0.40221581  0.74200276     0.02400
H643        H  0.33404428  0.37255196  0.75952944     0.02900
H644        H  0.38462557  0.38643005  0.75939887     0.06400
H645        H  0.23733004  0.36804868  0.77769753     0.05400
H646        H  0.27493993  0.41228925  0.78551999    -0.00400
H647        H  0.28606014  0.37580112  0.77933982     0.01100
H648        H  0.28348114  0.46555735  0.70104074     0.04700
H649        H  0.28919262  0.42605645  0.69396423     0.06700
H650        H  0.32977021  0.46784803  0.70210332     0.07600
C651        C  0.02643009  0.18323209  0.74486817    -0.22100
C652        C  0.04749324  0.18381198  0.76008781     0.09900
C653        C  0.08547660  0.21313548  0.76244242     0.10300
C654        C  0.10246381  0.23985148  0.74898978    -0.17000
C655        C  0.08283193  0.23703849  0.73291691    -0.27400
C656        C  0.04361969  0.20935050  0.73117032     0.18600
C657        C  0.03341598  0.14902630  0.77059588     0.12600
C658        C  0.10895599  0.21478879  0.77862549    -0.11800
H659        H  0.13222750  0.26132998  0.75049045     0.12900
C660        C  0.01977440  0.20669395  0.71487389    -0.22600
H661        H  0.99732168  0.16054683  0.74312039     0.08500
C662        C  0.01211004  0.14204489  0.78635009     0.04900
C663        C  0.50093988  0.10817306  0.79548557    -0.19800
C664        C  0.01084392  0.08137310  0.78929809    -0.12100
C665        C  0.03174857  0.08876434  0.77317629     0.13600
C666        C  0.04239387  0.12218513  0.76415829    -0.22500
C667        C  0.50081417  0.16979863  0.79330167    -0.05600
H668        H  0.48450051  0.10275568  0.80759272     0.15100
C669        C  0.04508917  0.06353756  0.76499521    -0.15800
H670        H  0.05867622  0.12776595  0.75196020     0.09400
H671        H  0.98907914  0.18546775  0.71652736     0.07300
H672        H  0.03057574  0.19837578  0.70311596     0.08500
H673        H  0.02084770  0.23398798  0.71236956     0.07500
H674        H  0.11220931  0.18930436  0.77926850     0.02400
H675        H  0.09427347  0.21679810  0.79071673     0.02900
H676        H  0.13823445  0.23932645  0.77837410     0.06400
H677        H  0.48373535  0.15979175  0.80566004     0.05400
H678        H  0.48307038  0.17470693  0.78316532    -0.00400
H679        H  0.02706368  0.19666210  0.79636184     0.01100
H680        H  0.03180277  0.05454574  0.75158216     0.04700
H681        H  0.03771250  0.03870684  0.77289443     0.06700
H682        H  0.07694754  0.07867420  0.76370461     0.07600
C683        C  0.08310244  0.39977804  0.75905274    -0.22100
C684        C  0.06397702  0.41907180  0.75300727     0.09900
C685        C  0.06271935  0.42602623  0.73469850     0.10300
C686        C  0.08137872  0.41396585  0.72275113    -0.17000
C687        C  0.10138627  0.39535917  0.72876367    -0.27400
C688        C  0.10197452  0.38780868  0.74714289     0.18600
C689        C  0.04944262  0.43567511  0.76619672     0.12600
C690        C  0.04271822  0.44717138  0.72787827    -0.11800
H691        H  0.08098693  0.41969573  0.70867703     0.12900
C692        C  0.12424082  0.36918930  0.75441459    -0.22600
H693        H  0.08431725  0.39522677  0.77321279     0.08500
C694        C  0.01109406  0.41720090  0.77209518     0.04900
C695        C  0.49847995  0.43585514  0.78362228    -0.19800
C696        C  0.02323450  0.47245295  0.78923758    -0.12100
C697        C  0.06248630  0.49001396  0.78412049     0.13600
C698        C  0.07489009  0.47130531  0.77257372    -0.22500
C699        C  0.48375816  0.37812102  0.76609399    -0.05600
H700        H  0.46920218  0.42169405  0.78840402     0.15100
C701        C  0.08180337  0.01784851  0.79056501    -0.15800
H702        H  0.10461345  0.48488223  0.76823674     0.09400
H703        H  0.11166380  0.34022213  0.74929310     0.07300
H704        H  0.12340623  0.36770154  0.76917133     0.08500
H705        H  0.15491289  0.38518738  0.75044329     0.07500
H706        H  0.05630046  0.47550945  0.73384506     0.02400
H707        H  0.01179551  0.43219452  0.73147954     0.02900
H708        H  0.04452825  0.45022436  0.71318140     0.06400
H709        H  0.45476364  0.36780391  0.77197720     0.05400
H710        H  0.49519495  0.35914159  0.77025683    -0.00400
H711        H  0.48046584  0.37715809  0.75139736     0.01100
H712        H  0.10126680  0.01137151  0.79885548     0.04700
H713        H  0.06960836  0.03190666  0.79885943     0.06700
H714        H  0.09935269  0.03788811  0.78011543     0.07600
C715        C  0.24315601  0.27444445  0.44059793    -0.22100
C716        C  0.21361858  0.24185863  0.43311963     0.09900
C717        C  0.17507634  0.22999640  0.43777328     0.10300
C718        C  0.16698093  0.25203287  0.44946994    -0.17000
C719        C  0.19635511  0.28620222  0.45599435    -0.27400
C720        C  0.23511750  0.29724842  0.45161723     0.18600
C721        C  0.22459307  0.22393407  0.41896738     0.12600
C722        C  0.14270254  0.19467156  0.43017971    -0.11800
H723        H  0.13750045  0.24292110  0.45320670     0.12900
C724        C  0.26878562  0.33352574  0.45736468    -0.22600
H725        H  0.27275472  0.28339128  0.43686641     0.08500
C726        C  0.22945148  0.23775616  0.40144830     0.04900
C727        C  0.24997393  0.22822430  0.38937530    -0.19800
C728        C  0.26636478  0.20567380  0.39444620    -0.12100
C729        C  0.25898114  0.18955553  0.41167223     0.13600
C730        C  0.23811296  0.19901279  0.42374470    -0.22500
C731        C  0.21497597  0.26438986  0.39579542    -0.05600
H732        H  0.25482352  0.23995139  0.37609645     0.15100
C733        C  0.27506710  0.16455357  0.41787336    -0.15800
H734        H  0.23444794  0.18887309  0.43731125     0.09400
H735        H  0.28494880  0.34929420  0.44550202     0.07300
H736        H  0.28851991  0.32797721  0.46594628     0.08500
H737        H  0.25969443  0.35138171  0.46456217     0.07500
H738        H  0.14699280  0.17059296  0.43395603     0.02400
H739        H  0.14210430  0.19651188  0.41546121     0.02900
H740        H  0.11424068  0.18953856  0.43519148     0.06400
H741        H  0.22148611  0.27271467  0.38164259     0.05400
H742        H  0.22883507  0.29008322  0.40404121    -0.00400
H743        H  0.18326957  0.25101123  0.39741655     0.01100
H744        H  0.30698726  0.17945944  0.41689619     0.04700
H745        H  0.26295339  0.13887413  0.40961413     0.06700
H746        H  0.26762537  0.15584066  0.43192999     0.07600
C747        C  0.49659064  0.27930882  0.40162484    -0.22100
C748        C  0.99171436  0.26378646  0.41865103     0.09900
C749        C  0.45512781  0.23499996  0.42362589     0.10300
C750        C  0.42423404  0.22212719  0.41132659    -0.17000
C751        C  0.42897611  0.23784512  0.39425272    -0.27400
C752        C  0.46583961  0.26676427  0.38934340     0.18600
C753        C  0.02582288  0.27712297  0.43071836     0.12600
C754        C  0.44896895  0.21770647  0.44183839    -0.11800
H755        H  0.39612111  0.20007616  0.41514296     0.12900
C756        C  0.47349941  0.28368839  0.37098084    -0.22600
H757        H  0.02492558  0.30127895  0.39791524     0.08500
C758        C  0.05381828  0.26553411  0.42834092     0.04900
C759        C  0.08622993  0.27955740  0.43962039    -0.19800
C760        C  0.09128893  0.30445725  0.45352639    -0.12100
C761        C  0.06402256  0.31747424  0.45534661     0.13600
C762        C  0.03122592  0.30297574  0.44415182    -0.22500
C763        C  0.04925047  0.23791383  0.41404257    -0.05600
H764        H  0.10742621  0.27036234  0.43773470     0.15100
C765        C  0.06946914  0.34805216  0.46809214    -0.15800
H766        H  0.51019567  0.31270303  0.44560613     0.09400
H767        H  0.46493212  0.26140796  0.36079815     0.07300
H768        H  0.50450628  0.30374011  0.36911519     0.08500
H769        H  0.45719299  0.29918658  0.36876829     0.07500
H770        H  0.45523090  0.23929997  0.45215421     0.02400
H771        H  0.96853732  0.20530639  0.44382736     0.02900
H772        H  0.41881738  0.19526011  0.44355388     0.06400
H773        H  0.07335564  0.23115834  0.41430098     0.05400
H774        H  0.04866535  0.24955677  0.40074915    -0.00400
H775        H  0.02193509  0.21161617  0.41599662     0.01100
H776        H  0.06790020  0.37082968  0.46063664     0.04700
H777        H  0.09776905  0.36076883  0.47503202     0.06700
H778        H  0.04624991  0.33685518  0.47813726     0.07600
C779        C  0.21636971  0.50021637  0.40342036    -0.22100
C780        C  0.23574294  0.50170245  0.41934521     0.09900
C781        C  0.27160616  0.03185081  0.42282414     0.10300
C782        C  0.29051378  0.06008731  0.41020782    -0.17000
C783        C  0.27342932  0.05887329  0.39358896    -0.27400
C784        C  0.23505417  0.03072944  0.39019176     0.18600
C785        C  0.22079015  0.46782117  0.43043003     0.12600
C786        C  0.29246158  0.03201608  0.43975530    -0.11800
H787        H  0.31969304  0.08188049  0.41287902     0.12900
C788        C  0.21413253  0.02977036  0.37312458    -0.22600
H789        H  0.18835899  0.47636457  0.40084322     0.08500
C790        C  0.19659872  0.46173730  0.44505868     0.04900
C791        C  0.18566463  0.42971957  0.45552744    -0.19800
C792        C  0.19882247  0.40396668  0.45178203    -0.12100
C793        C  0.22166327  0.40960949  0.43644453     0.13600
C794        C  0.23221108  0.44141298  0.42607263    -0.22500
C795        C  0.18243515  0.48893075  0.44955253    -0.05600
H796        H  0.16710613  0.42495788  0.46683036     0.15100
C797        C  0.23759875  0.38444653  0.43085560    -0.15800
H798        H  0.25053292  0.44624239  0.41464378     0.09400
H799        H  0.20991264  0.55077523  0.37121525     0.07300
H800        H  0.18361288  0.00742617  0.37329036     0.08500
H801        H  0.22808268  0.02425820  0.36165565     0.07500
H802        H  0.29717009  0.00735051  0.43998268     0.02400
H803        H  0.27520351  0.03122824  0.45144791     0.02900
H804        H  0.32108636  0.05731294  0.44086343     0.06400
H805        H  0.16359929  0.47989181  0.46140100     0.05400
H806        H  0.16560733  0.49126662  0.43814528    -0.00400
H807        H  0.20726819  0.51677290  0.45241589     0.01100
H808        H  0.22682895  0.37338249  0.41730154     0.04700
H809        H  0.22956465  0.36073951  0.43977764     0.06700
H810        H  0.26957988  0.40042927  0.43069652     0.07600
C811        C  0.23730068  0.27418282  0.61017394    -0.22100
C812        C  0.23887202  0.24137422  0.61409875     0.09900
C813        C  0.22451826  0.22317177  0.63039502     0.10300
C814        C  0.20867491  0.23809507  0.64241356    -0.17000
C815        C  0.20669603  0.27096693  0.63864495    -0.27400
C816        C  0.22082817  0.28901116  0.62204339     0.18600
C817        C  0.25797804  0.22766444  0.60158275     0.12600
C818        C  0.22637987  0.18817808  0.63519221    -0.11800
H819        H  0.19809677  0.22405969  0.65500526     0.12900
C820        C  0.21799146  0.32279703  0.61579987    -0.22600
H821        H  0.24858300  0.28806243  0.59760491     0.08500
C822        C  0.23743612  0.20130310  0.58813812     0.04900
C823        C  0.25677768  0.18711733  0.57767914    -0.19800
C824        C  0.29629997  0.19922244  0.58023090    -0.12100
C825        C  0.31688457  0.22652877  0.59341749     0.13600
C826        C  0.29739817  0.24022103  0.60393467    -0.22500
C827        C  0.19527049  0.18833854  0.58484941    -0.05600
H828        H  0.24112853  0.16665132  0.56742034     0.15100
C829        C  0.35963668  0.24259038  0.59609630    -0.15800
H830        H  0.31291552  0.26069141  0.61421904     0.09400
H831        H  0.20374247  0.31697917  0.60249723     0.07300
H832        H  0.24738172  0.34690743  0.61463959     0.08500
H833        H  0.20075524  0.33074214  0.62445275     0.07500
H834        H  0.25685811  0.19399272  0.63549755     0.02400
H835        H  0.21007246  0.16608413  0.62519302     0.02900
H836        H  0.21383116  0.17740622  0.64845878     0.06400
H837        H  0.18361206  0.16785606  0.57376757     0.05400
H838        H  0.19105779  0.21258574  0.58132521    -0.00400
H839        H  0.17866057  0.17490184  0.59699895     0.01100
H840        H  0.37132442  0.26579480  0.60590369     0.04700
H841        H  0.37437687  0.25381159  0.58329629     0.06700
H842        H  0.36620934  0.22086561  0.60130193     0.07600
C843        C  0.44672687  0.19818310  0.60847991    -0.22100
C844        C  0.47179779  0.23638846  0.60668489     0.09900
C845        C  0.46613653  0.25618385  0.59259201     0.10300
C846        C  0.43520411  0.23716739  0.58064883    -0.17000
C847        C  0.40972915  0.19873631  0.58243325    -0.27400
C848        C  0.41603537  0.17903955  0.59652664     0.18600
C849        C  0.50537711  0.25391378  0.61899749     0.12600
C850        C  0.49230229  0.29739877  0.59035585    -0.11800
H851        H  0.43038219  0.25261338  0.57007603     0.12900
C852        C  0.39239778  0.13764138  0.59903734    -0.22600
H853        H  0.45177285  0.18292466  0.61910549     0.08500
C854        C  0.50137963  0.26122747  0.63697299     0.04900
C855        C  0.03312225  0.27278508  0.64872996    -0.19800
C856        C  0.06863424  0.27727054  0.64279015    -0.12100
C857        C  0.07274055  0.27070000  0.62465297     0.13600
C858        C  0.04111865  0.25943144  0.61302102    -0.22500
C859        C  0.46362333  0.25653327  0.64378654    -0.05600
H860        H  0.03006179  0.27773755  0.66262820     0.15100
C861        C  0.10914922  0.27308576  0.61724053    -0.15800
H862        H  0.04385905  0.25323677  0.59926184     0.09400
H863        H  0.37737795  0.13167512  0.61198320     0.07300
H864        H  0.41151463  0.12468330  0.59887568     0.08500
H865        H  0.37084848  0.12440545  0.58840976     0.07500
H866        H  0.02226293  0.30299614  0.58817786     0.02400
H867        H  0.49158983  0.31237153  0.60252151     0.02900
H868        H  0.48337197  0.30873614  0.57883928     0.06400
H869        H  0.46565967  0.26412397  0.65807835     0.05400
H870        H  0.44087878  0.22708009  0.64227805    -0.00400
H871        H  0.45505988  0.27476655  0.63612943     0.01100
H872        H  0.10275429  0.24568691  0.61149324     0.04700
H873        H  0.13216602  0.28038881  0.62735511     0.06700
H874        H  0.12035070  0.29446453  0.60658458     0.07600
C875        C  0.26299856  0.00321328  0.62900564    -0.22100
C876        C  0.24233566  0.99542371  0.61296175     0.09900
C877        C  0.21569157  0.45741230  0.60867406     0.10300
C878        C  0.20648427  0.43160562  0.62259838    -0.17000
C879        C  0.22588288  0.44198754  0.63917110    -0.27400
C880        C  0.25623316  0.47905912  0.64149934     0.18600
C881        C  0.25576953  0.02524751  0.59942648     0.12600
C882        C  0.19467657  0.44532478  0.59108069    -0.11800
H883        H  0.18346858  0.40335630  0.62059738     0.12900
C884        C  0.28021904  0.49209334  0.65834031    -0.22600
H885        H  0.28676016  0.03103566  0.63120171     0.08500
C886        C  0.24440747  0.05314434  0.59946649     0.04900
C887        C  0.26315017  0.08415791  0.58824412    -0.19800
C888        C  0.29331119  0.08810763  0.57721044    -0.12100
C889        C  0.30439204  0.05977318  0.57722743     0.13600
C890        C  0.28481450  0.02842064  0.58802551    -0.22500
C891        C  0.21319779  0.05054688  0.61160650    -0.05600
H892        H  0.25482067  0.10589283  0.58834792     0.15100
C893        C  0.33847071  0.06248350  0.56733248    -0.15800
H894        H  0.29395106  0.00724463  0.58839861     0.09400
H895        H  0.30398966  0.01451234  0.65773952     0.07300
H896        H  0.29060867  0.96624172  0.66051178     0.08500
H897        H  0.26232617  0.49235260  0.66954133     0.07500
H898        H  0.21555447  0.44974050  0.58038078     0.02400
H899        H  0.17978466  0.46188341  0.58805411     0.02900
H900        H  0.17276900  0.41535048  0.59113381     0.06400
H901        H  0.20780691  0.07470783  0.60992658     0.05400
H902        H  0.22170180  0.04991822  0.62567964    -0.00400
H903        H  0.18593919  0.02470686  0.60862635     0.01100
H904        H  0.35902467  0.06035859  0.57686584     0.04700
H905        H  0.35437306  0.08915085  0.56026394     0.06700
H906        H  0.32863591  0.03915172  0.55767619     0.07600
C907        C  0.26521327  0.21647109  0.51537735    -0.22100
C908        C  0.26707874  0.24797715  0.52357404     0.09900
C909        C  0.28728714  0.26048704  0.53984017     0.10300
C910        C  0.30768515  0.24290464  0.54668778    -0.17000
C911        C  0.30346834  0.20932125  0.53942348    -0.27400
C912        C  0.28234618  0.19651043  0.52313656     0.18600
C913        C  0.24663336  0.26642758  0.51494005     0.12600
C914        C  0.28432378  0.28973971  0.55092052    -0.11800
H915        H  0.32530231  0.25446881  0.55848511     0.12900
C916        C  0.27632107  0.16166648  0.51372700    -0.22600
H917        H  0.24943218  0.20699486  0.50289993     0.08500
C918        C  0.26674209  0.30171123  0.50676480     0.04900
C919        C  0.24578755  0.31754742  0.49866726    -0.19800
C920        C  0.20571117  0.29700086  0.49624863    -0.12100
C921        C  0.18559505  0.26146672  0.50427507     0.13600
C922        C  0.20625698  0.24690020  0.51372957    -0.22500
C923        C  0.31003426  0.32112981  0.50499996    -0.05600
H924        H  0.26107600  0.34560076  0.49350523     0.15100
C925        C  0.14255976  0.23816974  0.50317242    -0.15800
H926        H  0.19080458  0.21961301  0.51983241     0.09400
H927        H  0.25369443  0.15304145  0.50319313     0.07300
H928        H  0.26675175  0.13840256  0.52320634     0.08500
H929        H  0.30307689  0.16649022  0.50699807     0.07500
H930        H  0.25363635  0.27989179  0.55422336     0.02400
H931        H  0.29535285  0.31656800  0.54379508     0.02900
H932        H  0.30074082  0.29501064  0.56364009     0.06400
H933        H  0.32071662  0.34769480  0.49752008     0.05400
H934        H  0.31859874  0.30279412  0.49762884    -0.00400
H935        H  0.32470857  0.32771482  0.51812052     0.01100
H936        H  0.13483454  0.21179036  0.49597570     0.04700
H937        H  0.12915586  0.25283671  0.49622300     0.06700
H938        H  0.13049494  0.23156171  0.51677992     0.07600
C939        C  0.26106650  0.47642230  0.49443256    -0.22100
C940        C  0.24602057  0.48152526  0.51037641     0.09900
C941        C  0.21448218  0.44982565  0.51802822     0.10300
C942        C  0.19705570  0.41567612  0.50864845    -0.17000
C943        C  0.21223933  0.41078753  0.49266981    -0.27400
C944        C  0.24741945  0.44102117  0.48675230     0.18600
C945        C  0.26551352  0.02186215  0.51989649     0.12600
C946        C  0.19999735  0.45079131  0.53641361    -0.11800
H947        H  0.17144592  0.39269896  0.51400125     0.12900
C948        C  0.27354664  0.43681867  0.47361916    -0.22600
H949        H  0.28365820  0.00373358  0.48837617     0.08500
C950        C  0.30617861  0.04531399  0.52090487     0.04900
C951        C  0.32121248  0.08137230  0.52817360    -0.19800
C952        C  0.29745922  0.09276731  0.53689178    -0.12100
C953        C  0.25699635  0.06956062  0.53601408     0.13600
C954        C  0.24170433  0.03557026  0.52673618    -0.22500
C955        C  0.33495020  0.03255390  0.51600685    -0.05600
H956        H  0.35221860  0.09908304  0.52885448     0.15100
C957        C  0.22897341  0.07949051  0.54478250    -0.15800
H958        H  0.21066631  0.01880679  0.52551188     0.09400
H959        H  0.30228306  0.44610236  0.47991959     0.07300
H960        H  0.27731030  0.45453124  0.46179592     0.08500
H961        H  0.26292298  0.40763582  0.46945549     0.07500
H962        H  0.18381996  0.46663040  0.53652053     0.02400
H963        H  0.22460266  0.46339069  0.54596698     0.02900
H964        H  0.17996935  0.42229314  0.54124320     0.06400
H965        H  0.35568296  0.03840107  0.52719917     0.05400
H966        H  0.35041139  0.54284363  0.50476403    -0.00400
H967        H  0.32002358  0.49821594  0.51514215     0.01100
H968        H  0.20874943  0.08025957  0.53461244     0.04700
H969        H  0.24329050  0.10702098  0.55149331     0.06700
H970        H  0.21214590  0.05800794  0.55485037     0.07600
C971        C  0.48064093  0.21559316  0.53567057    -0.22100
C972        C  0.48661665  0.24623922  0.52514871     0.09900
C973        C  0.45630290  0.25485213  0.52257284     0.10300
C974        C  0.42121034  0.23354593  0.53132599    -0.17000
C975        C  0.41535181  0.20311611  0.54208187    -0.27400
C976        C  0.44520988  0.19343937  0.54386559     0.18600
C977        C  0.02289979  0.26528787  0.51503317     0.12600
C978        C  0.46037295  0.28541736  0.51005068    -0.11800
H979        H  0.39819230  0.24067174  0.52979002     0.12900
C980        C  0.44043807  0.15925098  0.55362962    -0.22600
H981        H  0.00356036  0.20826443  0.53702459     0.08500
C982        C  0.05413895  0.29981405  0.52019935     0.04900
C983        C  0.08739007  0.31595260  0.50964153    -0.19800
C984        C  0.09104344  0.29736141  0.49467863    -0.12100
C985        C  0.06075347  0.26081659  0.49075201     0.13600
C986        C  0.02669358  0.24627403  0.50047162    -0.22500
C987        C  0.05305134  0.31879115  0.53716423    -0.05600
H988        H  0.11057686  0.34318466  0.51312910     0.15100
C989        C  0.06340172  0.23473358  0.47739108    -0.15800
H990        H  0.00325381  0.21887752  0.49711987     0.09400
H991        H  0.46142782  0.16761531  0.56487054     0.07300
H992        H  0.44586665  0.14114570  0.54440690     0.08500
H993        H  0.41119865  0.14243574  0.55894452     0.07500
H994        H  0.46665343  0.27935005  0.49646584     0.02400
H995        H  0.48414548  0.31264898  0.51449567     0.02900
H996        H  0.43358187  0.28787842  0.50933294     0.06400
H997        H  0.08027540  0.34516892  0.53940960     0.05400
H998        H  0.04897070  0.30006299  0.54862713    -0.00400
H999        H  0.02900331  0.32548568  0.53677910     0.01100
H1000       H  0.05784126  0.20838866  0.48412150     0.04700
H1001       H  0.09205285  0.24593363  0.47133159     0.06700
H1002       H  0.04126781  0.22800682  0.46676754     0.07600
C1003       C  0.33733801  0.66562687  0.54085424     0.45900
H1004       H  0.34153963  0.66848910  0.52633341    -0.03200
C1005       C  0.33012059  0.65892331  0.57520711     0.45900
H1006       H  0.32650471  0.65572208  0.58984212    -0.03200
C1007       C  0.37625995  0.68214800  0.55104039    -0.16900
C1008       C  0.31607147  0.68573037  0.54879939    -0.16600
C1009       C  0.31432346  0.62471516  0.54715292    -0.17000
C1010       C  0.37239312  0.67898391  0.56925061    -0.17000
C1011       C  0.31204282  0.68149814  0.56708134    -0.16500
C1012       C  0.31132061  0.62151990  0.56527461    -0.16900
C1013       C  0.16745016  0.83246146  0.45813805     0.45900
H1014       H  0.16590431  0.82890446  0.44347150    -0.03200
C1015       C  0.16884677  0.83895272  0.49256861     0.45900
H1016       H  0.16934933  0.84080017  0.50729046    -0.03200
C1017       C  0.18870001  0.81406855  0.46795209    -0.16900
C1018       C  0.18693491  0.87330087  0.46436561    -0.16600
C1019       C  0.12736345  0.81559704  0.46607971    -0.17000
C1020       C  0.18942533  0.81759717  0.48609659    -0.17000
C1021       C  0.18951857  0.87723379  0.48275140    -0.16500
C1022       C  0.12744133  0.81740445  0.48435246    -0.16900
O1023       O  0.09327416  0.74244783  0.70208084    -0.80500
O1024       O  0.18842348  0.87576782  0.64911515    -0.65200
O1025       O  0.15853979  0.80351014  0.68665328    -1.11800
C1026       C  0.11698210  0.88426397  0.71307315     1.06400
O1027       O  0.21648532  0.91932231  0.66923934    -0.78400
O1028       O  0.21016561  0.91354219  0.70451924    -0.66000
Ni1029     Ni  0.12592826  0.75180364  0.68151675     1.34900
C1030       C  0.21080804  0.88834486  0.71418949     0.85100
O1031       O  0.19585189  0.81385787  0.65390373    -0.78900
O1032       O  0.15553123  0.75425985  0.66072194    -0.89200
C1033       C  0.20895337  0.91001577  0.65305142     0.84700
O1034       O  0.08909058  0.75833520  0.66751227    -0.67400
O1035       O  0.13888996  0.90939579  0.70219303    -0.86700
C1036       C  0.09463780  0.78202878  0.65541720     0.85500
C1037       C  0.18307625  0.77896248  0.65157700     1.07100
H1038       H  0.12560258  0.85598740  0.67551125     0.38900
O1039       O  0.14951495  0.86059009  0.68122640    -1.09400
O1040       O  0.18490504  0.85438108  0.71345022    -0.66000
Ni1041     Ni  0.13659015  0.82741285  0.70073645     1.26300
O1042       O  0.12625006  0.81193231  0.65351888    -0.66200
O1043       O  0.11437148  0.85199946  0.71403374    -0.78500
C1044       C  0.09862419  0.75810389  0.71723095     0.84900
O1045       O  0.12252689  0.79219260  0.71944648    -0.65700
Ni1046     Ni  0.17711733  0.91287803  0.68562598     1.27400
Ni1047     Ni  0.17320532  0.83819842  0.66726248     1.26100
H1048       H  0.18167902  0.80595519  0.69236895     0.39500
C1049       C  0.48648187  0.51199626  0.79285484     0.45900
H1050       H  0.48511099  0.51220991  0.77810716    -0.03200
C1051       C  0.48681574  0.50910917  0.82737802     0.45900
H1052       H  0.48541126  0.50460877  0.84175332    -0.03200
C1053       C  0.49578865  0.98514552  0.79742796    -0.16900
C1054       C  0.50705072  0.55081880  0.80168259    -0.16600
C1055       C  0.43638772  0.98913678  0.79986777    -0.17000
C1056       C  0.49777699  0.98299154  0.81552257    -0.17000
C1057       C  0.51006315  0.54981082  0.82023304    -0.16500
C1058       C  0.43844019  0.98773947  0.81799484    -0.16900
C1059       C  0.15073886  0.83878552  0.87533360     0.45900
H1060       H  0.15445211  0.84018605  0.86079259    -0.03200
C1061       C  0.14392424  0.83385665  0.90974672     0.45900
H1062       H  0.14097307  0.83149335  0.92445472    -0.03200
C1063       C  0.13588428  0.79890618  0.88249794    -0.16900
C1064       C  0.18896630  0.86252077  0.88547563    -0.16600
C1065       C  0.12269544  0.85215969  0.88256758    -0.17000
C1066       C  0.13212870  0.79667518  0.90054906    -0.17000
C1067       C  0.18503926  0.85987628  0.90366951    -0.16500
C1068       C  0.11925380  0.84900202  0.90087801    -0.16900
C1069       C  0.35854609  0.67398315  0.15790819     0.45900
H1070       H  0.35688769  0.66987442  0.17252221    -0.03200
C1071       C  0.36564276  0.68429826  0.12372264     0.45900
H1072       H  0.36934409  0.68998091  0.10927332    -0.03200
C1073       C  0.38292866  0.65839196  0.14931501    -0.16900
C1074       C  0.31933485  0.65446473  0.14768947    -0.16600
C1075       C  0.37732984  0.71540714  0.15237535    -0.17000
C1076       C  0.38719106  0.66417486  0.13130195    -0.17000
C1077       C  0.32344436  0.66034470  0.12943057    -0.16500
C1078       C  0.38047779  0.72048769  0.13438333    -0.16900
C1079       C  0.02368080  0.00078474  0.20815571     0.45900
H1080       H  0.02248176  0.99740166  0.19352835    -0.03200
C1081       C  0.02635249  0.00728104  0.24258265     0.45900
H1082       H  0.02717170  0.01084011  0.25717973    -0.03200
C1083       C  0.06741642  0.52364689  0.21531439    -0.16900
C1084       C  0.00546512  0.52387884  0.21476926    -0.16600
C1085       C  0.00453722  0.96286026  0.21797870    -0.17000
C1086       C  0.06857485  0.52660714  0.23352813    -0.17000
C1087       C  0.00691455  0.52660929  0.23308110    -0.16500
C1088       C  0.00574037  0.96655298  0.23626373    -0.16900
O1089       O  0.29114880  0.57329330  0.36359084    -0.80500
O1090       O  0.37924151  0.71981075  0.31811914    -0.65200
O1091       O  0.35291487  0.64126627  0.35168088    -1.11800
C1092       C  0.29965377  0.70661260  0.38342010     1.06400
O1093       O  0.39991694  0.76272280  0.33906109    -0.78400
O1094       O  0.39555275  0.74590091  0.37355721    -0.66000
Ni1095     Ni  0.32445097  0.59102857  0.34314033     1.34900
C1096       C  0.39810422  0.72022780  0.38201988     0.85100
O1097       O  0.39508353  0.66339407  0.32042700    -0.78900
O1098       O  0.35533392  0.60187120  0.32189574    -0.89200
C1099       C  0.39479015  0.75366000  0.32277068     0.84700
O1100       O  0.28578605  0.59792113  0.33094630    -0.67400
O1101       O  0.32120388  0.73499804  0.37408268    -0.86700
C1102       C  0.29032182  0.62340120  0.32001115     0.85500
C1103       C  0.38422569  0.63019112  0.31531078     1.07100
H1104       H  0.31332878  0.68958258  0.34341261     0.38900
O1105       O  0.33735003  0.69524191  0.34933924    -1.09400
O1106       O  0.37312841  0.68591712  0.38072150    -0.66000
Ni1107     Ni  0.32608728  0.65804818  0.36706511     1.26300
O1108       O  0.32165208  0.65387466  0.31926677    -0.66200
O1109       O  0.29887295  0.67523209  0.38200092    -0.78500
C1110       C  0.29333165  0.58491209  0.37946669     0.84900
O1111       O  0.31391439  0.61889612  0.38362317    -0.65700
Ni1112     Ni  0.35987466  0.74639704  0.35640415     1.27400
Ni1113     Ni  0.36635294  0.67999562  0.33449551     1.26100
H1114       H  0.37618275  0.64412135  0.35743424     0.39500
O1115       O  0.02544255  0.58971154  0.99980988    -0.80500
O1116       O  0.49669156  0.96896114  0.05228040    -0.65200
O1117       O  0.03858408  0.53387398  0.01204553    -1.11800
C1118       C  0.41042297  0.95761209  0.98879575     1.06400
O1119       O  0.47438538  0.92099054  0.03406551    -0.78400
O1120       O  0.47186549  0.92406059  0.99843901    -0.66000
Ni1121     Ni  0.06159273  0.58597857  0.01559092     1.34900
C1122       C  0.99638044  0.94693600  0.98772212     0.85100
O1123       O  0.06765038  0.52762472  0.04511979    -0.78900
O1124       O  0.09786635  0.58398983  0.03198397    -0.89200
C1125       C  0.48137640  0.93406418  0.04979349     0.84700
O1126       O  0.03219244  0.58866323  0.03474348    -0.67400
O1127       O  0.40762798  0.93304836  0.00011279    -0.86700
C1128       C  0.50836200  0.56431422  0.04506290     0.85500
C1129       C  0.09642631  0.56054806  0.04369477     1.07100
H1130       H  0.45222997  0.98841502  0.02557379     0.38900
O1131       O  0.46988090  0.98170011  0.01991776    -1.09400
O1132       O  0.00591033  0.98143941  0.98734383    -0.66000
Ni1133     Ni  0.49240557  0.51164249  0.99791428     1.26300
O1134       O  0.49997618  0.53021351  0.04460375    -0.66200
O1135       O  0.44069917  0.98892554  0.98681865    -0.78500
C1136       C  0.02402061  0.58151115  0.98356706     0.84900
O1137       O  0.01417716  0.54802180  0.97940401    -0.65700
Ni1138     Ni  0.44228129  0.92896477  0.01708106     1.27400
Ni1139     Ni  0.01752453  0.00363936  0.03313667     1.26100
H1140       H  0.05774119  0.52906926  0.00652925     0.39500
C1141       C  0.23204360  0.62679101  0.27951894    -0.22100
C1142       C  0.19642530  0.59560522  0.28277698     0.09900
C1143       C  0.19072129  0.57554106  0.29873361     0.10300
C1144       C  0.22144517  0.58626308  0.31084748    -0.17000
C1145       C  0.25807441  0.61656744  0.30740205    -0.27400
C1146       C  0.26301155  0.63781225  0.29162263     0.18600
C1147       C  0.16641478  0.58201200  0.26867461     0.12600
C1148       C  0.15232470  0.54227882  0.30278723    -0.11800
H1149       H  0.21687584  0.57021412  0.32293999     0.12900
C1150       C  0.30072718  0.67139956  0.28696868    -0.22600
H1151       H  0.23585732  0.64193397  0.26717538     0.08500
C1152       C  0.13817366  0.59364676  0.26753964     0.04900
C1153       C  0.10731933  0.57577986  0.25545926    -0.19800
C1154       C  0.10421229  0.54662626  0.24452714    -0.12100
C1155       C  0.13352348  0.53599054  0.24532835     0.13600
C1156       C  0.16447716  0.55428602  0.25721473    -0.22500
C1157       C  0.14034116  0.62436528  0.27928008    -0.05600
H1158       H  0.08506374  0.58409689  0.25476798     0.15100
C1159       C  0.13242039  0.50421909  0.23482643    -0.15800
H1160       H  0.18635766  0.54549629  0.25822918     0.09400
H1161       H  0.29896325  0.68382646  0.27404745     0.07300
H1162       H  0.32374092  0.66330506  0.28584457     0.08500
H1163       H  0.30864735  0.69331660  0.29728439     0.07500
H1164       H  0.14485563  0.01558394  0.29553730     0.02400
H1165       H  0.12958584  0.55086692  0.30299760     0.02900
H1166       H  0.15462868  0.02788942  0.31866899     0.06400
H1167       H  0.11591021  0.63006692  0.27669182     0.05400
H1168       H  0.16760869  0.65038149  0.27676813    -0.00400
H1169       H  0.13957730  0.61645474  0.29347168     0.01100
H1170       H  0.15718769  0.51502317  0.22560975     0.04700
H1171       H  0.10555946  0.48894973  0.22707768     0.06700
H1172       H  0.13211589  0.97963993  0.24311304     0.07600
C1173       C  0.41263493  0.84048348  0.29721292    -0.22100
C1174       C  0.43437316  0.83901102  0.28300405     0.09900
C1175       C  0.44214169  0.80884812  0.28145856     0.10300
C1176       C  0.42832490  0.78082545  0.29446520    -0.17000
C1177       C  0.40785801  0.78304500  0.30912842    -0.27400
C1178       C  0.39924003  0.81285522  0.31034581     0.18600
C1179       C  0.45170135  0.87123076  0.27089178     0.12600
C1180       C  0.46533345  0.80659764  0.26620806    -0.11800
H1181       H  0.43437105  0.75765942  0.29344969     0.12900
C1182       C  0.37517316  0.81526749  0.32519356    -0.22600
H1183       H  0.40687267  0.86383694  0.29819956     0.08500
C1184       C  0.43107252  0.87541562  0.25646853     0.04900
C1185       C  0.44903950  0.90731607  0.24578243    -0.19800
C1186       C  0.48746822  0.93471403  0.24898190    -0.12100
C1187       C  0.00782169  0.93039529  0.26373426     0.13600
C1188       C  0.48949063  0.89867121  0.27444525    -0.22500
C1189       C  0.39043845  0.84598725  0.25225418    -0.05600
H1190       H  0.43314249  0.91071814  0.23472868     0.15100
C1191       C  0.04941979  0.95739125  0.26794362    -0.15800
H1192       H  0.00474413  0.89501350  0.28570387     0.09400
H1193       H  0.34698582  0.78935500  0.32557067     0.07300
H1194       H  0.36940034  0.83916030  0.32337978     0.08500
H1195       H  0.39042995  0.81919618  0.33813666     0.07500
H1196       H  0.49464295  0.83107753  0.26648469     0.02400
H1197       H  0.45088384  0.80631516  0.25340448     0.02900
H1198       H  0.46842310  0.78098188  0.26689640     0.06400
H1199       H  0.37862075  0.85337747  0.24033971     0.05400
H1200       H  0.37152176  0.84264065  0.26368231    -0.00400
H1201       H  0.38988005  0.81900657  0.24960122     0.01100
H1202       H  0.05258135  0.98402116  0.27310191     0.04700
H1203       H  0.06706679  0.96226700  0.25598458     0.06700
H1204       H  0.06144897  0.94641826  0.27837663     0.07600
C1205       C  0.44581514  0.54523408  0.26626619    -0.22100
C1206       C  0.45785002  0.58307656  0.26342407     0.09900
C1207       C  0.48623622  0.60270683  0.25055411     0.10300
C1208       C  0.50244823  0.58397323  0.24108839    -0.17000
C1209       C  0.49008183  0.54584482  0.24388852    -0.27400
C1210       C  0.46089466  0.52621489  0.25648467     0.18600
C1211       C  0.44036603  0.60085410  0.27460954     0.12600
C1212       C  0.49855005  0.64293262  0.24647846    -0.11800
H1213       H  0.02455844  0.59901956  0.23128617     0.12900
C1214       C  0.44412037  0.48487617  0.25925177    -0.22600
H1215       H  0.42408063  0.53035658  0.27619650     0.08500
C1216       C  0.40062576  0.58985733  0.27329924     0.04900
C1217       C  0.38343586  0.60097108  0.28649401    -0.19800
C1218       C  0.40509628  0.62347480  0.30079187    -0.12100
C1219       C  0.44531851  0.63648925  0.30152450     0.13600
C1220       C  0.46243340  0.62474711  0.28847199    -0.22500
C1221       C  0.37629654  0.56648834  0.25796538    -0.05600
H1222       H  0.35271341  0.59157885  0.28581002     0.15100
C1223       C  0.46982177  0.66089859  0.31656617    -0.15800
H1224       H  0.49280955  0.63280452  0.28954327     0.09400
H1225       H  0.41880888  0.47367326  0.26816094     0.07300
H1226       H  0.46584825  0.47874949  0.26560958     0.08500
H1227       H  0.43436883  0.47019249  0.24629652     0.07500
H1228       H  0.51158830  0.66032974  0.25849863     0.02400
H1229       H  0.47310850  0.64573757  0.24210722     0.02900
H1230       H  0.52016932  0.65374227  0.23569900     0.06400
H1231       H  0.84623218  0.56148851  0.25875108     0.05400
H1232       H  0.37566023  0.53906011  0.25774476    -0.00400
H1233       H  0.88868947  0.58174144  0.24533559     0.01100
H1234       H  0.50039821  0.66736354  0.31539374     0.04700
H1235       H  0.45887093  0.64657966  0.32946710     0.06700
H1236       H  0.46903346  0.68770097  0.31647805     0.07600
C1237       C  0.39044804  0.80211698  0.10629828    -0.22100
C1238       C  0.43055079  0.82335420  0.10538560     0.09900
C1239       C  0.45419755  0.81335948  0.11565335     0.10300
C1240       C  0.43704503  0.78057992  0.12572471    -0.17000
C1241       C  0.39693087  0.75749682  0.12554736    -0.27400
C1242       C  0.37330731  0.76903566  0.11613607     0.18600
C1243       C  0.44674989  0.85261763  0.09171329     0.12600
C1244       C  0.49743293  0.83663830  0.11550812    -0.11800
H1245       H  0.45525620  0.77207513  0.13298761     0.12900
C1246       C  0.33019592  0.74588900  0.11568618    -0.22600
H1247       H  0.37261302  0.81026045  0.09835766     0.08500
C1248       C  0.45298122  0.84386536  0.07437938     0.04900
C1249       C  0.46589560  0.87155172  0.06130611    -0.19800
C1250       C  0.47199476  0.90775110  0.06498881    -0.12100
C1251       C  0.46576057  0.91634877  0.08255762     0.13600
C1252       C  0.45339129  0.88859363  0.09570556    -0.22500
C1253       C  0.44491566  0.80494302  0.06956023    -0.05600
H1254       H  0.47040325  0.86447982  0.04798186     0.15100
C1255       C  0.97057140  0.95400129  0.08756102    -0.15800
H1256       H  0.44802533  0.89465770  0.10908657     0.09400
H1257       H  0.32236052  0.72013485  0.10805299     0.07300
H1258       H  0.31619308  0.76064452  0.10897379     0.08500
H1259       H  0.31890661  0.73902816  0.12939241     0.07500
H1260       H  0.50577378  0.86526839  0.12021037     0.02400
H1261       H  0.50827989  0.83811864  0.10182058     0.02900
H1262       H  0.51160013  0.82481165  0.12433626     0.06400
H1263       H  0.45104645  0.80280395  0.05535873     0.05400
H1264       H  0.41409902  0.78493142  0.07190123    -0.00400
H1265       H  0.46315560  0.79680992  0.07781675     0.01100
H1266       H  0.95186018  0.96105420  0.07901409     0.04700
H1267       H  0.00119159  0.97510708  0.08605588     0.06700
H1268       H  0.96274216  0.95495289  0.10162005     0.07600
C1269       C  0.16344960  0.56956032  0.08309403    -0.22100
C1270       C  0.19312351  0.60604428  0.08059207     0.09900
C1271       C  0.19198704  0.62663691  0.06581166     0.10300
C1272       C  0.16070837  0.61048116  0.05393599    -0.17000
C1273       C  0.12999437  0.57396756  0.05638817    -0.27400
C1274       C  0.13175763  0.55316272  0.07126864     0.18600
C1275       C  0.22652726  0.62138958  0.09295994     0.12600
C1276       C  0.22388207  0.66573971  0.06257546    -0.11800
H1277       H  0.16037478  0.62702007  0.04270520     0.12900
C1278       C  0.10069899  0.51399325  0.07504776    -0.22600
H1279       H  0.16517832  0.55389514  0.09442690     0.08500
C1280       C  0.22758910  0.64115646  0.10845048     0.04900
C1281       C  0.26018426  0.65487144  0.11967523    -0.19800
C1282       C  0.29112403  0.64799080  0.11611212    -0.12100
C1283       C  0.28978684  0.62819656  0.10033612     0.13600
C1284       C  0.25765889  0.61563905  0.08895204    -0.22500
C1285       C  0.19403702  0.64706732  0.11326486    -0.05600
H1286       H  0.26114954  0.67027913  0.13154148     0.15100
C1287       C  0.31979119  0.61677682  0.09597575    -0.15800
H1288       H  0.25622594  0.60026381  0.07698619     0.09400
H1289       H  0.06522150  0.02079475  0.08012999     0.07300
H1290       H  0.09724426  0.00938404  0.09244142     0.08500
H1291       H  0.08983472  0.99871212  0.06916573     0.07500
H1292       H  0.25163670  0.66547887  0.06091966     0.02400
H1293       H  0.22645835  0.68387218  0.07403342     0.02900
H1294       H  0.21843442  0.67811383  0.05040997     0.06400
H1295       H  0.19941000  0.66282223  0.12592014     0.05400
H1296       H  0.16782766  0.61965437  0.11489298    -0.00400
H1297       H  0.18872935  0.66297092  0.10259222     0.01100
H1298       H  0.31136448  0.59805438  0.08420313     0.04700
H1299       H  0.32293616  0.60108358  0.10728089     0.06700
H1300       H  0.34771074  0.64111179  0.09272202     0.07600
C1301       C  0.48309905  0.59260816  0.08873441    -0.22100
C1302       C  0.45707006  0.60469536  0.08293357     0.09900
C1303       C  0.44758124  0.60306985  0.06467894     0.10300
C1304       C  0.46429458  0.58913468  0.05256844    -0.17000
C1305       C  0.49005743  0.57674867  0.05838108    -0.27400
C1306       C  0.50003588  0.57892177  0.07659673     0.18600
C1307       C  0.44038242  0.61944892  0.09614942     0.12600
C1308       C  0.41982961  0.61600448  0.05803272    -0.11800
H1309       H  0.45738020  0.58799299  0.03850591     0.12900
C1310       C  0.52964056  0.56822045  0.08307628    -0.22600
H1311       H  0.49053489  0.59440958  0.10275506     0.08500
C1312       C  0.40777960  0.59551275  0.10605920     0.04900
C1313       C  0.39198565  0.61090146  0.11784594    -0.19800
C1314       C  0.40746696  0.64961179  0.11975666    -0.12100
C1315       C  0.44073216  0.67346480  0.11008092     0.13600
C1316       C  0.45690925  0.65809039  0.09843653    -0.22500
C1317       C  0.38908366  0.55382258  0.10382901    -0.05600
H1318       H  0.36634453  0.59255232  0.12498621     0.15100
C1319       C  0.45956496  0.71502183  0.11212806    -0.15800
H1320       H  0.48219306  0.67624921  0.09083778     0.09400
H1321       H  0.50784646  0.03345820  0.07980555     0.07300
H1322       H  0.53441245  0.57202347  0.09768181     0.08500
H1323       H  0.55757524  0.58581156  0.07644976     0.07500
H1324       H  0.43119639  0.64598684  0.06122433     0.02400
H1325       H  0.39145467  0.59957257  0.06448787     0.02900
H1326       H  0.41537997  0.61253443  0.04340058     0.06400
H1327       H  0.36353090  0.53918235  0.11247545     0.05400
H1328       H  0.41001891  0.54393003  0.10737854    -0.00400
H1329       H  0.37950594  0.54622277  0.08979813     0.01100
H1330       H  0.48650383  0.72937655  0.10434699     0.04700
H1331       H  0.46698453  0.72247081  0.12635128     0.06700
H1332       H  0.43965612  0.72506038  0.10719478     0.07600
C1333       C  0.48494408  0.58209578  0.18039119    -0.22100
C1334       C  0.45064245  0.57925093  0.18697895     0.09900
C1335       C  0.43272753  0.55526498  0.20149670     0.10300
C1336       C  0.44912554  0.53424365  0.20865079    -0.17000
C1337       C  0.48555998  0.53991343  0.20334810    -0.27400
C1338       C  0.00366189  0.56432342  0.18879793     0.18600
C1339       C  0.43352672  0.60067898  0.17810900     0.12600
C1340       C  0.39791517  0.55359982  0.21036689    -0.11800
H1341       H  0.43212329  0.01276786  0.21954906     0.12900
C1342       C  0.04377435  0.57468378  0.18299019    -0.22600
H1343       H  0.99799575  0.59945185  0.16878653     0.08500
C1344       C  0.45328343  0.64012309  0.17677533     0.04900
C1345       C  0.43619465  0.65816545  0.16713937    -0.19800
C1346       C  0.39909188  0.63797033  0.15974691    -0.12100
C1347       C  0.37819263  0.59898939  0.16255488     0.13600
C1348       C  0.39643072  0.58078771  0.17076498    -0.22500
C1349       C  0.49153801  0.66336494  0.18599920    -0.05600
H1350       H  0.45159937  0.68820241  0.16554913     0.15100
C1351       C  0.33643043  0.57559102  0.15754637    -0.15800
H1352       H  0.38122474  0.55061945  0.17160632     0.09400
H1353       H  0.05394596  0.59611637  0.17233914     0.07300
H1354       H  0.04529514  0.55027866  0.17762192     0.08500
H1355       H  0.06346632  0.58687383  0.19447820     0.07500
H1356       H  0.37237792  0.54109646  0.20141763     0.02400
H1357       H  0.40411676  0.58219954  0.21415528     0.02900
H1358       H  0.38479841  0.03045702  0.22156751     0.06400
H1359       H  0.50130240  0.69366228  0.18459488     0.05400
H1360       H  0.51410256  0.65799850  0.18025418    -0.00400
H1361       H  0.48887333  0.65666712  0.20041804     0.01100
H1362       H  0.31937648  0.56306459  0.16970976     0.04700
H1363       H  0.33272833  0.55276859  0.14842745     0.06700
H1364       H  0.32477006  0.59216172  0.15100480     0.07600
C1365       C  0.21406236  0.58610836  0.15947356    -0.22100
C1366       C  0.21097391  0.59909367  0.17633012     0.09900
C1367       C  0.24510231  0.62686492  0.18456197     0.10300
C1368       C  0.27879832  0.64521849  0.17452987    -0.17000
C1369       C  0.28185223  0.63275831  0.15747270    -0.27400
C1370       C  0.24959009  0.59979834  0.15092105     0.18600
C1371       C  0.17263056  0.58075277  0.18533188     0.12600
C1372       C  0.24805567  0.63666814  0.20405171    -0.11800
H1373       H  0.30319406  0.66879798  0.18058174     0.12900
C1374       C  0.25132623  0.57580487  0.13617820    -0.22600
H1375       H  0.18891086  0.56337928  0.15328797     0.08500
C1376       C  0.15717653  0.60084093  0.19447539     0.04900
C1377       C  0.12417091  0.58129732  0.20482158    -0.19800
C1378       C  0.10243660  0.54227613  0.20408028    -0.12100
C1379       C  0.11511356  0.52235409  0.19309235     0.13600
C1380       C  0.15070504  0.54163160  0.18460110    -0.22500
C1381       C  0.17349808  0.64252218  0.19314193    -0.05600
H1382       H  0.11433306  0.59683863  0.21298855     0.15100
C1383       C  0.09318231  0.48074691  0.19050054    -0.15800
H1384       H  0.16151968  0.52561449  0.17746444     0.09400
H1385       H  0.23166284  0.57397963  0.12510065     0.07300
H1386       H  0.24178943  0.54721006  0.14131526     0.08500
H1387       H  0.28060930  0.58576854  0.13106808     0.07500
H1388       H  0.22172364  0.61829178  0.21153233     0.02400
H1389       H  0.25448617  0.66611798  0.20560238     0.02900
H1390       H  0.27193506  0.63344832  0.21027315     0.06400
H1391       H  0.18385399  0.65549343  0.20642847     0.05400
H1392       H  0.15051873  0.64890567  0.18847003    -0.00400
H1393       H  0.19733081  0.65546235  0.18351922     0.01100
H1394       H  0.08292100  0.97136403  0.17697783     0.04700
H1395       H  0.10886989  0.96545029  0.19556758     0.06700
H1396       H  0.11144981  0.46814633  0.19467861     0.07600
C1397       C  0.38993419  0.79790702  0.18063375    -0.22100
C1398       C  0.43036764  0.81832500  0.18186462     0.09900
C1399       C  0.45239280  0.80234090  0.17493127     0.10300
C1400       C  0.43344420  0.76636346  0.16754102    -0.17000
C1401       C  0.39339865  0.74753030  0.16494965    -0.27400
C1402       C  0.37130940  0.76360269  0.17154093     0.18600
C1403       C  0.44903879  0.85581864  0.19067799     0.12600
C1404       C  0.49579532  0.82398189  0.17393144    -0.11800
H1405       H  0.45026701  0.75395344  0.16245471     0.12900
C1406       C  0.32838938  0.74615840  0.16868715    -0.22600
H1407       H  0.37273003  0.80933973  0.18629862     0.08500
C1408       C  0.44417874  0.88619106  0.18449247     0.04900
C1409       C  0.46238225  0.92051777  0.19370530    -0.19800
C1410       C  0.48740274  0.92617782  0.20821480    -0.12100
C1411       C  0.99523967  0.89677551  0.21302124     0.13600
C1412       C  0.47370620  0.86151929  0.20522880    -0.22500
C1413       C  0.42109798  0.88311716  0.16787015    -0.05600
H1414       H  0.45713178  0.94312064  0.18949391     0.15100
C1415       C  0.02771136  0.90171003  0.22527921    -0.15800
H1416       H  0.47769504  0.83856286  0.21009075     0.09400
H1417       H  0.31655188  0.72012889  0.16079851     0.07300
H1418       H  0.32149095  0.76599777  0.16142197     0.08500
H1419       H  0.31378145  0.73970359  0.18174805     0.07500
H1420       H  0.00918848  0.82926228  0.18731931     0.02400
H1421       H  0.50455637  0.85094429  0.16706737     0.02900
H1422       H  0.50764745  0.80858787  0.16630922     0.06400
H1423       H  0.42272958  0.91025600  0.16430548     0.05400
H1424       H  0.39029653  0.86278482  0.16975720    -0.00400
H1425       H  0.43252335  0.87413016  0.15654652     0.01100
H1426       H  0.01608286  0.88369615  0.23716991     0.04700
H1427       H  0.04559509  0.93090294  0.22945587     0.06700
H1428       H  0.04705699  0.89352163  0.21822126     0.07600
C1429       C  0.27135602  0.93191846  0.93024484    -0.22100
C1430       C  0.28124058  0.90848020  0.94016718     0.09900
C1431       C  0.25854456  0.86942731  0.93853626     0.10300
C1432       C  0.22635568  0.85474831  0.92714010    -0.17000
C1433       C  0.21718948  0.87799969  0.91673479    -0.27400
C1434       C  0.23952998  0.91715332  0.91851402     0.18600
C1435       C  0.31492403  0.92499790  0.95248411     0.12600
C1436       C  0.26896947  0.84314950  0.94833403    -0.11800
H1437       H  0.20890203  0.82485608  0.92591605     0.12900
C1438       C  0.23010373  0.94399422  0.90864002    -0.22600
H1439       H  0.28845247  0.96189403  0.93174152     0.08500
C1440       C  0.35312805  0.94218085  0.94623312     0.04900
C1441       C  0.38381465  0.95414779  0.95851592    -0.19800
C1442       C  0.37712504  0.94870238  0.97686971    -0.12100
C1443       C  0.33882984  0.93290595  0.98313689     0.13600
C1444       C  0.30830582  0.92131913  0.97083135    -0.22500
C1445       C  0.36145245  0.94617721  0.92662959    -0.05600
H1446       H  0.41312743  0.96629722  0.95372092     0.15100
C1447       C  0.32887597  0.92836943  0.00261074    -0.15800
H1448       H  0.27892261  0.90869554  0.97558045     0.09400
H1449       H  0.25426007  0.96163812  0.89972279     0.07300
H1450       H  0.22593161  0.96218154  0.91832024     0.08500
H1451       H  0.20335535  0.92977998  0.90053439     0.07500
H1452       H  0.26750153  0.84633565  0.96290187     0.02400
H1453       H  0.29862649  0.84927599  0.94478054     0.02900
H1454       H  0.24904556  0.81356400  0.94488628     0.06400
H1455       H  0.39286497  0.95938632  0.92402263     0.05400
H1456       H  0.35017629  0.96372501  0.92037357    -0.00400
H1457       H  0.34745536  0.91818297  0.92035294     0.01100
H1458       H  0.31138500  0.94231888  0.00557575     0.04700
H1459       H  0.35444734  0.94096416  0.01153710     0.06700
H1460       H  0.31168978  0.89825575  0.00579726     0.07600
C1461       C  0.11079527  0.70706131  0.92447506    -0.22100
C1462       C  0.07304222  0.69556141  0.92998899     0.09900
C1463       C  0.05457337  0.71660698  0.92541997     0.10300
C1464       C  0.07461912  0.74915913  0.91547249    -0.17000
C1465       C  0.11271101  0.76123610  0.91031632    -0.27400
C1466       C  0.13115418  0.74001796  0.91483086     0.18600
C1467       C  0.05654063  0.66558672  0.94320622     0.12600
C1468       C  0.01423982  0.70524767  0.93145198    -0.11800
H1469       H  0.06083183  0.76572064  0.91201053     0.12900
C1470       C  0.17249977  0.75196883  0.91047884    -0.22600
H1471       H  0.12509605  0.69118125  0.92851218     0.08500
C1472       C  0.03700531  0.62765204  0.93846202     0.04900
C1473       C  0.02579974  0.60064003  0.95192130    -0.19800
C1474       C  0.03379049  0.61100373  0.96995810    -0.12100
C1475       C  0.05234569  0.64960930  0.97455119     0.13600
C1476       C  0.06341698  0.67613340  0.96103722    -0.22500
C1477       C  0.02838859  0.61593499  0.91925585    -0.05600
H1478       H  0.01122633  0.57137964  0.94829600     0.15100
C1479       C  0.56183160  0.66388944  0.99344055    -0.15800
H1480       H  0.07849137  0.70560346  0.96433022     0.09400
H1481       H  0.17388993  0.73034175  0.90209921     0.07300
H1482       H  0.18908945  0.75514054  0.92297143     0.08500
H1483       H  0.18657485  0.77888457  0.90333416     0.07500
H1484       H  0.01329560  0.70490076  0.94620555     0.02400
H1485       H  0.99415159  0.67699310  0.92628845     0.02900
H1486       H  0.00411346  0.72483477  0.92658333     0.06400
H1487       H  0.01264190  0.58510723  0.91782335     0.05400
H1488       H  0.05569583  0.62678476  0.91176214    -0.00400
H1489       H  0.01029595  0.62726918  0.91330334     0.01100
H1490       H  0.08133554  0.65446914  0.99974877     0.04700
H1491       H  0.53496952  0.65401300  0.00119875     0.06700
H1492       H  0.57692647  0.69484400  0.99408505     0.07600
C1493       C  0.04049918  0.86152688  0.92406693    -0.22100
C1494       C  0.06309267  0.89129870  0.93555632     0.09900
C1495       C  0.10357563  0.90737856  0.93517664     0.10300
C1496       C  0.12056286  0.89252256  0.92380285    -0.17000
C1497       C  0.09823643  0.86285991  0.91224577    -0.27400
C1498       C  0.05760331  0.84717549  0.91228857     0.18600
C1499       C  0.04421976  0.90451838  0.94849602     0.12600
C1500       C  0.12889958  0.94050412  0.94666212    -0.11800
H1501       H  0.15164769  0.90450187  0.92373629     0.12900
C1502       C  0.03152021  0.81492025  0.90052258    -0.22600
H1503       H  0.00936160  0.84918304  0.92443657     0.08500
C1504       C  0.03210089  0.93076358  0.94377193     0.04900
C1505       C  0.01720975  0.94456857  0.95690798    -0.19800
C1506       C  0.01369513  0.93234259  0.97463503    -0.12100
C1507       C  0.02576418  0.90582585  0.97930578     0.13600
C1508       C  0.04091881  0.89234782  0.96615606    -0.22500
C1509       C  0.03538897  0.94450300  0.92493418    -0.05600
H1510       H  0.50781348  0.96464145  0.95325814     0.15100
C1511       C  0.02416506  0.89262452  0.99819900    -0.15800
H1512       H  0.05079191  0.87252763  0.96968349     0.09400
H1513       H  0.01426054  0.82340538  0.89175825     0.07300
H1514       H  0.01164194  0.79112568  0.90889082     0.08500
H1515       H  0.04747399  0.80511545  0.89195897     0.07500
H1516       H  0.12286320  0.93311746  0.96091947     0.02400
H1517       H  0.12318246  0.96400539  0.94350120     0.02900
H1518       H  0.15999058  0.95008651  0.94444067     0.06400
H1519       H  0.52454091  0.96490461  0.92344092     0.05400
H1520       H  0.01833643  0.92066749  0.91586959    -0.00400
H1521       H  0.06606047  0.95835880  0.92092803     0.01100
H1522       H  0.99379686  0.87658222  0.00253393     0.04700
H1523       H  0.04018436  0.91693070  0.00715454     0.06700
H1524       H  0.03732335  0.87402473  0.99957460     0.07600
C1525       C  0.07088583  0.87696010  0.84551887    -0.22100
C1526       C  0.07229967  0.90940584  0.85250338     0.09900
C1527       C  0.08889753  0.92188365  0.86951352     0.10300
C1528       C  0.10861750  0.90508232  0.87777935    -0.17000
C1529       C  0.10594057  0.87158269  0.87136500    -0.27400
C1530       C  0.08571344  0.85684678  0.85510818     0.18600
C1531       C  0.05394987  0.92828070  0.84239259     0.12600
C1532       C  0.08223230  0.94980194  0.87994646    -0.11800
H1533       H  0.12469927  0.91743968  0.88986233     0.12900
C1534       C  0.07661186  0.81882863  0.84835446    -0.22600
H1535       H  0.05656533  0.86645175  0.83280893     0.08500
C1536       C  0.07499446  0.96599601  0.83710703     0.04900
C1537       C  0.05503721  0.98376144  0.82995839    -0.19800
C1538       C  0.01612900  0.96329293  0.82488216    -0.12100
C1539       C  0.99615274  0.92450713  0.82820270     0.13600
C1540       C  0.01474272  0.90789429  0.83771216    -0.22500
C1541       C  0.11856055  0.98634990  0.83713454    -0.05600
H1542       H  0.07046234  0.01343396  0.82742563     0.15100
C1543       C  0.45557463  0.89975234  0.82182341    -0.15800
H1544       H  0.99878538  0.87854651  0.84107136     0.09400
H1545       H  0.10296505  0.81780625  0.84450028     0.07300
H1546       H  0.05759259  0.81081949  0.83637326     0.08500
H1547       H  0.06102793  0.79791945  0.85875595     0.07500
H1548       H  0.05078010  0.93867205  0.88178186     0.02400
H1549       H  0.09368965  0.97706844  0.87322657     0.02900
H1550       H  0.09598507  0.95481893  0.89333791     0.06400
H1551       H  0.13006990  0.01518231  0.83193915     0.05400
H1552       H  0.12889923  0.97122896  0.82838067    -0.00400
H1553       H  0.13113316  0.98824190  0.85053542     0.01100
H1554       H  0.45468814  0.87665968  0.81373408     0.04700
H1555       H  0.44470726  0.91479356  0.81324631     0.06700
H1556       H  0.43619566  0.88781765  0.83336959     0.07600
C1557       C  0.05462100  0.62528641  0.85735221    -0.22100
C1558       C  0.07956933  0.65604094  0.84720959     0.09900
C1559       C  0.08876441  0.64962234  0.82998335     0.10300
C1560       C  0.06834388  0.61375371  0.82256590    -0.17000
C1561       C  0.03712241  0.58416780  0.83131322    -0.27400
C1562       C  0.53411727  0.58916793  0.84998885     0.18600
C1563       C  0.09452247  0.69420886  0.85491460     0.12600
C1564       C  0.11914186  0.68042595  0.81907736    -0.11800
H1565       H  0.07667690  0.60920911  0.80955649     0.12900
C1566       C  0.51302316  0.55795705  0.86295629    -0.22600
H1567       H  0.55077986  0.62972697  0.87124657     0.08500
C1568       C  0.06899269  0.70772614  0.85989455     0.04900
C1569       C  0.08359103  0.74230456  0.86851594    -0.19800
C1570       C  0.12325208  0.76518913  0.87115373    -0.12100
C1571       C  0.14907993  0.75295754  0.86504388     0.13600
C1572       C  0.13431288  0.71707840  0.85766109    -0.22500
C1573       C  0.02631249  0.68610311  0.85595323    -0.05600
H1574       H  0.06377282  0.75113241  0.87366427     0.15100
C1575       C  0.19220676  0.77665296  0.86623116    -0.15800
H1576       H  0.15410420  0.70680872  0.85428485     0.09400
H1577       H  0.51606459  0.56818118  0.87686562     0.07300
H1578       H  0.52557348  0.53876979  0.86280007     0.08500
H1579       H  0.48194597  0.54315662  0.86003125     0.07500
H1580       H  0.14788689  0.69065052  0.82541483     0.02400
H1581       H  0.11237517  0.70374006  0.81772008     0.02900
H1582       H  0.12102774  0.67049971  0.80560588     0.06400
H1583       H  0.01133712  0.70219717  0.85957971     0.05400
H1584       H  0.01290092  0.65976880  0.86363378    -0.00400
H1585       H  0.02148486  0.67974068  0.84150385     0.01100
H1586       H  0.20488557  0.76204458  0.87408267     0.04700
H1587       H  0.20104184  0.80401538  0.87247962     0.06700
H1588       H  0.20439837  0.78170240  0.85264709     0.07600
C1589       C  0.26799025  0.92443161  0.85330992    -0.22100
C1590       C  0.29826354  0.91793980  0.85883094     0.09900
C1591       C  0.29376724  0.89593826  0.87403116     0.10300
C1592       C  0.25747444  0.87712206  0.88193005    -0.17000
C1593       C  0.22666795  0.88291355  0.87626298    -0.27400
C1594       C  0.23259764  0.90813500  0.86214950     0.18600
C1595       C  0.33455787  0.93532448  0.84867109     0.12600
C1596       C  0.32761194  0.89434821  0.88270545    -0.11800
H1597       H  0.25335953  0.85805085  0.89274172     0.12900
C1598       C  0.20289885  0.91967537  0.85679639    -0.22600
H1599       H  0.27226006  0.94264735  0.84205708     0.08500
C1600       C  0.34666219  0.91374800  0.83861880     0.04900
C1601       C  0.38193189  0.93170645  0.82974541    -0.19800
C1602       C  0.40350034  0.97073913  0.82920480    -0.12100
C1603       C  0.38855763  0.99225285  0.83734418     0.13600
C1604       C  0.35528036  0.97431225  0.84765485    -0.22500
C1605       C  0.32084332  0.87246357  0.83569163    -0.05600
H1606       H  0.39134149  0.91516673  0.82223200     0.15100
C1607       C  0.41871141  0.53508044  0.84303052    -0.15800
H1608       H  0.34448700  0.99083102  0.85438406     0.09400
H1609       H  0.21479177  0.94322602  0.84722279     0.07300
H1610       H  0.19337770  0.92903693  0.86864504     0.08500
H1611       H  0.17778981  0.89654388  0.85015184     0.07500
H1612       H  0.34952811  0.92292931  0.88670991     0.02400
H1613       H  0.34131202  0.88308777  0.87362251     0.02900
H1614       H  0.31883607  0.87654940  0.89478171     0.06400
H1615       H  0.33434567  0.86045282  0.82679898     0.05400
H1616       H  0.29342283  0.86791552  0.82932469    -0.00400
H1617       H  0.31401348  0.85670740  0.84830525     0.05000
H1618       H  0.40004533  0.54678168  0.83822059     0.04700
H1619       H  0.44579417  0.54863729  0.83543343     0.06700
H1620       H  0.42516843  0.54236503  0.85731861     0.07600
C1621       C  0.35052503  0.97655535  0.77128000    -0.22100
C1622       C  0.33531827  0.93921221  0.76601034     0.09900
C1623       C  0.35272243  0.91814876  0.77231107     0.10300
C1624       C  0.38429525  0.93469732  0.78414692    -0.17000
C1625       C  0.39999141  0.97226078  0.78918889    -0.27400
C1626       C  0.38303904  0.99354706  0.78253425     0.18600
C1627       C  0.30294799  0.92382427  0.75289839     0.12600
C1628       C  0.33916523  0.87886162  0.76592493    -0.11800
H1629       H  0.39752702  0.91853270  0.78908407     0.12900
C1630       C  0.39888171  0.03433023  0.78665116    -0.22600
H1631       H  0.33754199  0.99287851  0.76615853     0.08500
C1632       C  0.26413502  0.90308013  0.75818113     0.04900
C1633       C  0.23460838  0.89062293  0.74519092    -0.19800
C1634       C  0.24302811  0.89941134  0.72713531    -0.12100
C1635       C  0.28195787  0.91993033  0.72187977     0.13600
C1636       C  0.31141555  0.93170856  0.73482873    -0.22500
C1637       C  0.25386148  0.89517027  0.77753465    -0.05600
H1638       H  0.20475789  0.87506745  0.74920126     0.15100
C1639       C  0.29259993  0.92882050  0.70260000    -0.15800
H1640       H  0.34128457  0.94761609  0.73089004     0.09400
H1641       H  0.37645583  0.03882194  0.79325543     0.07300
H1642       H  0.39930599  0.55187249  0.78597265     0.08500
H1643       H  0.42250373  0.54200694  0.80415387     0.07500
H1644       H  0.34189748  0.87877249  0.75124513     0.02400
H1645       H  0.30860165  0.86078330  0.76950081     0.02900
H1646       H  0.35649430  0.86668578  0.77189717     0.06400
H1647       H  0.22217625  0.87912706  0.77937342     0.05400
H1648       H  0.26484916  0.92183469  0.78496006    -0.00400
H1649       H  0.26686849  0.87869979  0.78332336     0.01100
H1650       H  0.28156746  0.94738299  0.69734518     0.04700
H1651       H  0.28010506  0.90263639  0.69469681     0.06700
H1652       H  0.32433313  0.94328937  0.70079705     0.07600
C1653       C  0.02252604  0.68147318  0.74565395    -0.22100
C1654       C  0.04387788  0.68544132  0.76126466     0.09900
C1655       C  0.08045255  0.71707896  0.76339392     0.10300
C1656       C  0.09634716  0.74215540  0.74922769    -0.17000
C1657       C  0.07700659  0.73556502  0.73276148    -0.27400
C1658       C  0.03863068  0.70608612  0.73131276     0.18600
C1659       C  0.03313881  0.65157817  0.77210506     0.12600
C1660       C  0.10401396  0.72272774  0.78005816    -0.11800
H1661       H  0.12530814  0.76529151  0.75057057     0.12900
C1662       C  0.01459605  0.70001586  0.71469452    -0.22600
H1663       H  0.99439830  0.65716555  0.74412005     0.08500
C1664       C  0.01085749  0.64262887  0.78762984     0.04900
C1665       C  0.50285135  0.60964572  0.79694434    -0.19800
C1666       C  0.01627614  0.58524803  0.79089076    -0.12100
C1667       C  0.03748926  0.59423380  0.77481025     0.13600
C1668       C  0.04572802  0.62719281  0.76589749    -0.22500
C1669       C  0.49556220  0.66761516  0.79428076    -0.05600
H1670       H  0.48590587  0.60282105  0.80895038     0.15100
C1671       C  0.05319884  0.57115482  0.76638191    -0.15800
H1672       H  0.06246746  0.63412969  0.75378847     0.09400
H1673       H  0.98444461  0.67764419  0.71653054     0.07300
H1674       H  0.02665028  0.69148505  0.70348775     0.08500
H1675       H  0.01374380  0.72606974  0.71122392     0.07500
H1676       H  0.11034314  0.69921839  0.78158731     0.02400
H1677       H  0.08782491  0.72405226  0.79173437     0.02900
H1678       H  0.13189832  0.74896902  0.77964697     0.06400
H1679       H  0.47832328  0.65635836  0.80652172     0.05400
H1680       H  0.47676167  0.67017592  0.78388723    -0.00400
H1681       H  0.01946752  0.69561610  0.79731678     0.01100
H1682       H  0.04066285  0.56255068  0.75281448     0.04700
H1683       H  0.04673697  0.54596652  0.77381891     0.06700
H1684       H  0.08501917  0.58791689  0.76535424     0.07600
C1685       C  0.06681427  0.89296960  0.75424273    -0.22100
C1686       C  0.05275534  0.91644407  0.74788960     0.09900
C1687       C  0.05823906  0.92802140  0.72998830     0.10300
C1688       C  0.07833221  0.91612455  0.71880256    -0.17000
C1689       C  0.09338138  0.89326935  0.72518789    -0.27400
C1690       C  0.08721267  0.88122674  0.74315072     0.18600
C1691       C  0.03728895  0.93270490  0.76081194     0.12600
C1692       C  0.04404375  0.95390788  0.72288298    -0.11800
H1693       H  0.08292163  0.92527015  0.70506635     0.12900
C1694       C  0.10380687  0.85788203  0.75106494    -0.22600
H1695       H  0.06296333  0.88494630  0.76814382     0.08500
C1696       C  0.99755957  0.91713473  0.76412361     0.04900
C1697       C  0.48490461  0.93495398  0.77616134    -0.19800
C1698       C  0.01122537  0.96768717  0.78501982    -0.12100
C1699       C  0.05125297  0.98259605  0.78197804     0.13600
C1700       C  0.06363608  0.96479640  0.76989863    -0.22500
C1701       C  0.46875541  0.88113435  0.75540761    -0.05600
H1702       H  0.45444836  0.92333981  0.77870596     0.15100
C1703       C  0.09237971  0.52810462  0.79041137    -0.15800
H1704       H  0.09418877  0.97640336  0.76729767     0.09400
H1705       H  0.09044732  0.82999016  0.74465777     0.07300
H1706       H  0.09827754  0.85343925  0.76555839     0.08500
H1707       H  0.13551184  0.87206333  0.74920042     0.07500
H1708       H  0.05773857  0.98053601  0.73043974     0.02400
H1709       H  0.01229610  0.94085327  0.72423553     0.02900
H1710       H  0.05102875  0.96042246  0.70860423     0.06400
H1711       H  0.43885845  0.87259276  0.75968900     0.05400
H1712       H  0.47555526  0.85849962  0.75898357    -0.00400
H1713       H  0.46988364  0.88452130  0.74074565     0.01100
H1714       H  0.11533656  0.52568668  0.79800716     0.04700
H1715       H  0.08014160  0.54193866  0.79886816     0.06700
H1716       H  0.10622096  0.54626961  0.77878719     0.07600
C1717       C  0.25315466  0.78526386  0.44243249    -0.22100
C1718       C  0.22607806  0.74964983  0.43669784     0.09900
C1719       C  0.18812421  0.73341225  0.44309081     0.10300
C1720       C  0.17726514  0.75470859  0.45393447    -0.17000
C1721       C  0.20358303  0.79173633  0.45844558    -0.27400
C1722       C  0.24254487  0.80658742  0.45318760     0.18600
C1723       C  0.23781648  0.73242303  0.42247893     0.12600
C1724       C  0.15915801  0.69407857  0.43816910    -0.11800
H1725       H  0.14791878  0.74269471  0.45856823     0.12900
C1726       C  0.27375084  0.84494292  0.45806454    -0.22600
H1727       H  0.28253136  0.79727910  0.43770416     0.08500
C1728       C  0.23950023  0.74430445  0.40471385     0.04900
C1729       C  0.25804212  0.73364991  0.39204012    -0.19800
C1730       C  0.27481882  0.71122693  0.39667566    -0.12100
C1731       C  0.27072015  0.69717723  0.41425219     0.13600
C1732       C  0.25240059  0.70822687  0.42699945    -0.22500
C1733       C  0.22274856  0.76922334  0.39927357    -0.05600
H1734       H  0.26057053  0.74390376  0.37853095     0.15100
C1735       C  0.28748627  0.67243521  0.41993934    -0.15800
H1736       H  0.25095824  0.69935735  0.44070769     0.09400
H1737       H  0.28762043  0.86088163  0.44585717     0.07300
H1738       H  0.29612231  0.84279173  0.46627594     0.08500
H1739       H  0.26239551  0.86064663  0.46547145     0.07500
H1740       H  0.16969605  0.67468762  0.44283288     0.02400
H1741       H  0.15505413  0.69159758  0.42350780     0.02900
H1742       H  0.13074562  0.68557329  0.44433930     0.06400
H1743       H  0.22600849  0.77543332  0.38480634     0.05400
H1744       H  0.23755501  0.79611544  0.40657347    -0.00400
H1745       H  0.19152667  0.75532266  0.40235086     0.01100
H1746       H  0.31900971  0.68672498  0.41752794     0.04700
H1747       H  0.27339545  0.64583489  0.41237322     0.06700
H1748       H  0.28292917  0.66545409  0.43430945     0.07600
C1749       C  0.50075367  0.76667992  0.40052909    -0.22100
C1750       C  0.99465914  0.75471148  0.41823429     0.09900
C1751       C  0.45682151  0.73008149  0.42390387     0.10300
C1752       C  0.42589925  0.71823285  0.41167781    -0.17000
C1753       C  0.43186327  0.73119785  0.39405246    -0.27400
C1754       C  0.46990020  0.75540572  0.38836268     0.18600
C1755       C  0.02817995  0.76936496  0.43072864     0.12600
C1756       C  0.44924411  0.71645584  0.44283006    -0.11800
H1757       H  0.39681549  0.69965295  0.41602388     0.12900
C1758       C  0.47828004  0.76889231  0.36939885    -0.22600
H1759       H  0.02993141  0.78539746  0.39624649     0.08500
C1760       C  0.05503165  0.75586793  0.43064455     0.04900
C1761       C  0.08719193  0.77190247  0.44213395    -0.19800
C1762       C  0.09259039  0.80029041  0.45417800    -0.12100
C1763       C  0.06627878  0.81463418  0.45381414     0.13600
C1764       C  0.03417104  0.79861641  0.44225761    -0.22500
C1765       C  0.04945017  0.72418894  0.41864119    -0.05600
H1766       H  0.10785895  0.76162471  0.44199347     0.15100
C1767       C  0.07209828  0.84799349  0.46460227    -0.15800
H1768       H  0.51395980  0.80959111  0.44198715     0.09400
H1769       H  0.46651348  0.74467575  0.36017098     0.07300
H1770       H  0.50973752  0.78555670  0.36704536     0.08500
H1771       H  0.46515766  0.78695309  0.36625847     0.07500
H1772       H  0.45820673  0.74044863  0.45203640     0.02400
H1773       H  0.96586313  0.70165060  0.44609766     0.02900
H1774       H  0.41819847  0.69699752  0.44501107     0.06400
H1775       H  0.07267807  0.71648892  0.42056007     0.05400
H1776       H  0.04958910  0.73225267  0.40451761    -0.00400
H1777       H  0.02146848  0.69927117  0.42155817     0.01100
H1778       H  0.07282219  0.86986082  0.45553969     0.04700
H1779       H  0.09943344  0.86076857  0.47233103     0.06700
H1780       H  0.04780660  0.83965663  0.47395466     0.07600
C1781       C  0.21587498  0.00298719  0.40300556    -0.22100
C1782       C  0.23422096  0.00259298  0.41898717     0.09900
C1783       C  0.27222191  0.53249435  0.42292572     0.10300
C1784       C  0.28937565  0.56048661  0.41004841    -0.17000
C1785       C  0.27138515  0.55761710  0.39347004    -0.27400
C1786       C  0.23373107  0.52776421  0.39036556     0.18600
C1787       C  0.21748799  0.96800402  0.42969555     0.12600
C1788       C  0.29380930  0.53479480  0.43994948    -0.11800
H1789       H  0.31794463  0.58356431  0.41252997     0.12900
C1790       C  0.21158112  0.52467682  0.37340723    -0.22600
H1791       H  0.18722710  0.98036014  0.40016163     0.08500
C1792       C  0.19394351  0.96237846  0.44454318     0.04900
C1793       C  0.18313064  0.93046052  0.45513432    -0.19800
C1794       C  0.19612865  0.90451609  0.45143133    -0.12100
C1795       C  0.21794501  0.90957758  0.43574441     0.13600
C1796       C  0.22781425  0.94095424  0.42512624    -0.22500
C1797       C  0.18061297  0.99010712  0.44922553    -0.05600
H1798       H  0.16523463  0.92622368  0.46663821     0.15100
C1799       C  0.23420761  0.88476387  0.43005714    -0.15800
H1800       H  0.24557755  0.94538883  0.41352039     0.09400
H1801       H  0.21431834  0.05683066  0.37120020     0.07300
H1802       H  0.18165216  0.50121898  0.37393831     0.08500
H1803       H  0.22573759  0.51947417  0.36192896     0.07500
H1804       H  0.29946078  0.51070464  0.44086439     0.02400
H1805       H  0.27651605  0.53442796  0.45154361     0.02900
H1806       H  0.32195636  0.56074475  0.44064369     0.06400
H1807       H  0.16227235  0.98146932  0.46124050     0.05400
H1808       H  0.16350922  0.99260627  0.43798308    -0.00400
H1809       H  0.20587489  0.01778774  0.45189398     0.01100
H1810       H  0.22198918  0.87229283  0.41686900     0.04700
H1811       H  0.22829203  0.86220056  0.43939626     0.06700
H1812       H  0.26603640  0.90146296  0.42900299     0.07600
C1813       C  0.23299951  0.77043009  0.60957802    -0.22100
C1814       C  0.23070648  0.73543086  0.61227112     0.09900
C1815       C  0.21305403  0.71509270  0.62774430     0.10300
C1816       C  0.19775919  0.73003022  0.64010239    -0.17000
C1817       C  0.20039291  0.76542974  0.63771794    -0.27400
C1818       C  0.21820139  0.78581603  0.62207580     0.18600
C1819       C  0.25082223  0.72242060  0.59985605     0.12600
C1820       C  0.21138614  0.67805106  0.63149446    -0.11800
H1821       H  0.18438394  0.71414226  0.65196772     0.12900
C1822       C  0.22146357  0.82347790  0.61822904    -0.22600
H1823       H  0.24713755  0.78607256  0.59775751     0.08500
C1824       C  0.23167803  0.69742081  0.58571347     0.04900
C1825       C  0.25213344  0.68431372  0.57528026    -0.19800
C1826       C  0.29141265  0.69606498  0.57855152    -0.12100
C1827       C  0.31065135  0.72216888  0.59238966     0.13600
C1828       C  0.29007726  0.73482321  0.60284073    -0.22500
C1829       C  0.18992639  0.68500564  0.58154121    -0.05600
H1830       H  0.23749631  0.66486344  0.56451500     0.15100
C1831       C  0.35316518  0.73805012  0.59589684    -0.15800
H1832       H  0.30463237  0.75436986  0.61359057     0.09400
H1833       H  0.23450477  0.83428258  0.60504324     0.07300
H1834       H  0.24016315  0.84400065  0.62839334     0.08500
H1835       H  0.19245327  0.82150581  0.61819316     0.07500
H1836       H  0.24106103  0.68166850  0.63231818     0.02400
H1837       H  0.19523097  0.65792180  0.62072216     0.02900
H1838       H  0.19683240  0.66591284  0.64425790     0.06400
H1839       H  0.17946373  0.66575284  0.56995501     0.05400
H1840       H  0.18622687  0.70968886  0.57836181    -0.00400
H1841       H  0.17185470  0.67032368  0.59313585     0.01100
H1842       H  0.36390649  0.76066504  0.60600554     0.04700
H1843       H  0.36921399  0.75001572  0.58345222     0.06700
H1844       H  0.35926149  0.71604779  0.60113377     0.07600
C1845       C  0.43981143  0.69713629  0.60931115    -0.22100
C1846       C  0.46656696  0.73462550  0.60679930     0.09900
C1847       C  0.46255535  0.75402033  0.59209905     0.10300
C1848       C  0.43166824  0.73519559  0.58014397    -0.17000
C1849       C  0.40516990  0.69710511  0.58228238    -0.27400
C1850       C  0.40951940  0.67796860  0.59721029     0.18600
C1851       C  0.50035238  0.75146607  0.61892387     0.12600
C1852       C  0.49059803  0.79458652  0.58916789    -0.11800
H1853       H  0.42797463  0.75048317  0.56916065     0.12900
C1854       C  0.38433845  0.63707661  0.60057714    -0.22600
H1855       H  0.44349855  0.68226819  0.62052089     0.08500
C1856       C  0.49737691  0.76090518  0.63665805     0.04900
C1857       C  0.02886754  0.77145737  0.64831462    -0.19800
C1858       C  0.06340581  0.77352238  0.64243930    -0.12100
C1859       C  0.06670254  0.76527801  0.62447612     0.13600
C1860       C  0.03506785  0.75448852  0.61294756    -0.22500
C1861       C  0.46086594  0.75954180  0.64322908    -0.05600
H1862       H  0.02656041  0.77786331  0.66208296     0.15100
C1863       C  0.10227328  0.76568276  0.61715001    -0.15800
H1864       H  0.03702657  0.74687732  0.59933813     0.09400
H1865       H  0.36791026  0.63305873  0.61300593     0.07300
H1866       H  0.40244372  0.62314492  0.60195623     0.08500
H1867       H  0.36406528  0.62320996  0.58961108     0.07500
H1868       H  0.01977263  0.79862597  0.58734889     0.02400
H1869       H  0.49071154  0.81110534  0.60088363     0.02900
H1870       H  0.48286075  0.80572715  0.57719267     0.06400
H1871       H  0.46370816  0.76861179  0.65732706     0.05400
H1872       H  0.43661732  0.73067110  0.64224948    -0.00400
H1873       H  0.45398249  0.77832214  0.63503558     0.01100
H1874       H  0.09470955  0.73760135  0.61190009     0.04700
H1875       H  0.12546060  0.77304194  0.62718062     0.06700
H1876       H  0.11382117  0.78619120  0.60613580     0.07600
C1877       C  0.26500967  0.50465682  0.62757538    -0.22100
C1878       C  0.24467801  0.49440299  0.61142186     0.09900
C1879       C  0.21239591  0.95910290  0.60953005     0.10300
C1880       C  0.20273696  0.93149869  0.62265743    -0.17000
C1881       C  0.22280284  0.93934599  0.63905184    -0.27400
C1882       C  0.25401707  0.97575059  0.64204879     0.18600
C1883       C  0.25645751  0.52297030  0.59738509     0.12600
C1884       C  0.19090948  0.94961103  0.59201152    -0.11800
H1885       H  0.17901444  0.90382180  0.62017375     0.12900
C1886       C  0.27901877  0.98601209  0.65860792    -0.22600
H1887       H  0.28798106  0.53307043  0.62925632     0.08500
C1888       C  0.24179563  0.54835432  0.59649617     0.04900
C1889       C  0.25931812  0.57933902  0.58520808    -0.19800
C1890       C  0.29139010  0.58564163  0.57503063    -0.12100
C1891       C  0.30553923  0.55959526  0.57580301     0.13600
C1892       C  0.28728039  0.52823584  0.58669116    -0.22500
C1893       C  0.20859744  0.54338437  0.60788955    -0.05600
H1894       H  0.24874766  0.59942749  0.58472896     0.15100
C1895       C  0.34162021  0.56513122  0.56675561    -0.15800
H1896       H  0.29885525  0.50897553  0.58778137     0.09400
H1897       H  0.30446158  0.52090676  0.65703571     0.07300
H1898       H  0.29279618  0.47353784  0.66148774     0.08500
H1899       H  0.26224425  0.98566393  0.67039893     0.07500
H1900       H  0.21130233  0.95461236  0.58100535     0.02400
H1901       H  0.17691624  0.96732678  0.58998359     0.02900
H1902       H  0.16823603  0.91993386  0.59145031     0.06400
H1903       H  0.20079908  0.56584026  0.60557248     0.05400
H1904       H  0.21639884  0.54394190  0.62216246    -0.00400
H1905       H  0.18292582  0.51626081  0.60478496     0.01100
H1906       H  0.36256722  0.56548050  0.57683923     0.04700
H1907       H  0.35592515  0.59163465  0.55943485     0.06700
H1908       H  0.33449306  0.54167797  0.55745557     0.07600
C1909       C  0.26812678  0.72064484  0.51428023    -0.22100
C1910       C  0.27145349  0.75231298  0.52297712     0.09900
C1911       C  0.29153249  0.76328429  0.53932736     0.10300
C1912       C  0.30997901  0.74369891  0.54592845    -0.17000
C1913       C  0.30390785  0.70986416  0.53822959    -0.27400
C1914       C  0.28338195  0.69881638  0.52176461     0.18600
C1915       C  0.25110363  0.77156652  0.51522732     0.12600
C1916       C  0.29031869  0.79300441  0.55075048    -0.11800
H1917       H  0.32723487  0.75370329  0.55794008     0.12900
C1918       C  0.27590316  0.66382827  0.51203512    -0.22600
H1919       H  0.25232057  0.71232338  0.50176291     0.08500
C1920       C  0.27090223  0.80676081  0.50696607     0.04900
C1921       C  0.24963755  0.82295978  0.49955266    -0.19800
C1922       C  0.20928460  0.80309433  0.49828761    -0.12100
C1923       C  0.18958871  0.76824747  0.50698537     0.13600
C1924       C  0.21074883  0.75305547  0.51539338    -0.22500
C1925       C  0.31399223  0.82575757  0.50451096    -0.05600
H1926       H  0.26473085  0.85066595  0.49402158     0.15100
C1927       C  0.14650008  0.74622954  0.50772093    -0.15800
H1928       H  0.19561123  0.72609200  0.52183476     0.09400
H1929       H  0.25412885  0.65690922  0.50121313     0.07300
H1930       H  0.26465357  0.63999249  0.52124842     0.08500
H1931       H  0.30259883  0.66747868  0.50566983     0.07500
H1932       H  0.25988885  0.78467514  0.55393341     0.02400
H1933       H  0.30309173  0.82026027  0.54391848     0.02900
H1934       H  0.30619355  0.79675927  0.56352946     0.06400
H1935       H  0.32448873  0.85260337  0.49729849     0.05400
H1936       H  0.32168731  0.80740103  0.49661956    -0.00400
H1937       H  0.32950442  0.83177790  0.51741951     0.01100
H1938       H  0.13626105  0.71973844  0.50022324     0.04700
H1939       H  0.13281251  0.76193562  0.50218423     0.06700
H1940       H  0.13728528  0.73982346  0.52177605     0.07600
C1941       C  0.25995791  0.97984628  0.49453537    -0.22100
C1942       C  0.24695310  0.98394615  0.51122337     0.09900
C1943       C  0.21621856  0.95187684  0.51900847     0.10300
C1944       C  0.19716856  0.91851522  0.50910115    -0.17000
C1945       C  0.21102253  0.91412277  0.49259391    -0.27400
C1946       C  0.24564149  0.94483160  0.48636081     0.18600
C1947       C  0.26450436  0.51973372  0.51883782     0.12600
C1948       C  0.20380236  0.95094890  0.53798774    -0.11800
H1949       H  0.17201396  0.89545224  0.51477262     0.12900
C1950       C  0.27098564  0.94173864  0.47245350    -0.22600
H1951       H  0.28555303  0.49989134  0.48847721     0.08500
C1952       C  0.30519975  0.54255246  0.52060311     0.04900
C1953       C  0.32033883  0.57905704  0.52738304    -0.19800
C1954       C  0.29642727  0.59150695  0.53510210    -0.12100
C1955       C  0.25596694  0.56880936  0.53359308     0.13600
C1956       C  0.24086977  0.53466288  0.52445917    -0.22500
C1957       C  0.33374324  0.52884070  0.51682305    -0.05600
H1958       H  0.35134680  0.59635506  0.52847826     0.15100
C1959       C  0.22767406  0.57926007  0.54166149    -0.15800
H1960       H  0.21011759  0.51934489  0.52202326     0.09400
H1961       H  0.30042065  0.95162963  0.47806989     0.07300
H1962       H  0.27296586  0.95936431  0.46087227     0.08500
H1963       H  0.26082012  0.91290742  0.46805903     0.07500
H1964       H  0.17397737  0.94696722  0.53820265     0.02400
H1965       H  0.22312070  0.97636556  0.54562723     0.02900
H1966       H  0.20435732  0.92726328  0.54505115     0.06400
H1967       H  0.35423317  0.53565542  0.52818619     0.05400
H1968       H  0.35120953  0.04799356  0.50410439    -0.00400
H1969       H  0.32158786  0.00219878  0.51349945     0.01100
H1970       H  0.20844428  0.58044985  0.53107930     0.04700
H1971       H  0.24181258  0.60665086  0.54850043     0.06700
H1972       H  0.20977691  0.55779004  0.55153019     0.07600
C1973       C  0.48059651  0.71711807  0.53656142    -0.22100
C1974       C  0.48583876  0.74617181  0.52503329     0.09900
C1975       C  0.45449439  0.75276190  0.52130856     0.10300
C1976       C  0.41922771  0.73133709  0.52996582    -0.17000
C1977       C  0.41400992  0.70245177  0.54171944    -0.27400
C1978       C  0.44499094  0.69462731  0.54460902     0.18600
C1979       C  0.02256010  0.76530135  0.51511449     0.12600
C1980       C  0.45763970  0.78113968  0.50762213    -0.11800
H1981       H  0.39551316  0.73712614  0.52751289     0.12900
C1982       C  0.44146086  0.66202976  0.55540916    -0.22600
H1983       H  0.00414970  0.71098319  0.53874626     0.08500
C1984       C  0.05216596  0.80140925  0.51949975     0.04900
C1985       C  0.08578729  0.81786688  0.50913190    -0.19800
C1986       C  0.09157815  0.79813049  0.49526186    -0.12100
C1987       C  0.06329577  0.76026583  0.49235807     0.13600
C1988       C  0.02869327  0.74522255  0.50171231    -0.22500
C1989       C  0.04913543  0.82174300  0.53556623    -0.05600
H1990       H  0.10770722  0.84616344  0.51195544     0.15100
C1991       C  0.06907797  0.73348359  0.48066954    -0.15800
H1992       H  0.00676035  0.71672927  0.49905126     0.09400
H1993       H  0.46193841  0.67228876  0.56686222     0.07300
H1994       H  0.44849587  0.64388548  0.54698211     0.08500
H1995       H  0.41220440  0.64459705  0.56055066     0.07500
H1996       H  0.46500230  0.77387626  0.49453090     0.02400
H1997       H  0.48032311  0.80937131  0.51151957     0.02900
H1998       H  0.43012998  0.78208107  0.50603999     0.06400
H1999       H  0.07525886  0.84926377  0.53733909     0.05400
H2000       H  0.04591980  0.80488485  0.54768179    -0.00400
H2001       H  0.02386548  0.82648960  0.53434139     0.01100
H2002       H  0.06523142  0.70905592  0.48868683     0.04700
H2003       H  0.09824013  0.74564758  0.47500783     0.06700
H2004       H  0.04724068  0.72337617  0.46976107     0.07600
C2005       C  0.83895348  0.16669031  0.54214501     0.45900
H2006       H  0.84249299  0.16901135  0.52759108    -0.03200
C2007       C  0.83409525  0.16139726  0.57660053     0.45900
H2008       H  0.83169644  0.15890824  0.59130650    -0.03200
C2009       C  0.87837816  0.18335138  0.55181869    -0.16900
C2010       C  0.81821735  0.18718442  0.55018118    -0.16600
C2011       C  0.81609770  0.12608372  0.54885249    -0.17000
C2012       C  0.87587075  0.18075820  0.57002181    -0.17000
C2013       C  0.81582600  0.18399013  0.56856279    -0.16500
C2014       C  0.81409105  0.12351834  0.56705343    -0.16900
C2015       C  0.66596768  0.33160941  0.45722143     0.45900
H2016       H  0.66467426  0.32955937  0.44248283    -0.03200
C2017       C  0.66821422  0.33574053  0.49175147     0.45900
H2018       H  0.66913642  0.33682445  0.50650326    -0.03200
C2019       C  0.68483511  0.31019405  0.46630015    -0.16900
C2020       C  0.68800708  0.37175473  0.46413144    -0.16600
C2021       C  0.62611478  0.31674260  0.46530592    -0.17000
C2022       C  0.68651104  0.31291062  0.48450687    -0.17000
C2023       C  0.69054498  0.37443897  0.48250993    -0.16500
C2024       C  0.62661792  0.31663587  0.48363156    -0.16900
O2025       O  0.59814002  0.24676645  0.70225489    -0.80500
O2026       O  0.69217401  0.37963959  0.65035273    -0.65200
O2027       O  0.66418000  0.30721943  0.68738941    -1.11800
C2028       C  0.62351752  0.38650417  0.71577304     1.06400
O2029       O  0.71965283  0.42482320  0.66987031    -0.78400
O2030       O  0.71559208  0.41749755  0.70532863    -0.66000
Ni2031     Ni  0.63130185  0.25574643  0.68201975     1.34900
C2032       C  0.71811295  0.39289562  0.71475122     0.85100
O2033       O  0.70100789  0.31862474  0.65471149    -0.78900
O2034       O  0.66147426  0.25867228  0.66144188    -0.89200
C2035       C  0.71213629  0.41410379  0.65382802     0.84700
O2036       O  0.59447959  0.26163846  0.66767881    -0.67400
O2037       O  0.64356462  0.41156669  0.70448425    -0.86700
C2038       C  0.59974564  0.28578227  0.65588586     0.85500
C2039       C  0.68866698  0.28381626  0.65230879     1.07100
H2040       H  0.62989412  0.35869425  0.67739656     0.38900
O2041       O  0.65430551  0.36393610  0.68277885    -1.09400
O2042       O  0.69280302  0.35849827  0.71422834    -0.66000
Ni2043     Ni  0.64320038  0.33063934  0.70225956     1.26300
O2044       O  0.63098571  0.31622532  0.65448421    -0.66200
O2045       O  0.62175565  0.35459400  0.71651282    -0.78500
C2046       C  0.60483102  0.26083767  0.71779993     0.84900
O2047       O  0.63015097  0.29438920  0.72057563    -0.65700
Ni2048     Ni  0.68087977  0.41628319  0.68712234     1.27400
Ni2049     Ni  0.67798956  0.34224022  0.66832383     1.26100
H2050       H  0.68754536  0.30944245  0.69274649     0.39500
C2051       C  0.97564331  0.00745831  0.79096662     0.45900
H2052       H  0.97287367  0.00825534  0.77627178    -0.03200
C2053       C  0.98026063  0.00396738  0.82540320     0.45900
H2054       H  0.98158280  0.00017427  0.83983404    -0.03200
C2055       C  0.00685181  0.49082500  0.80056133    -0.16900
C2056       C  0.99836726  0.04610909  0.79986331    -0.16600
C2057       C  0.94621204  0.49362537  0.80053738    -0.17000
C2058       C  0.00621049  0.48859583  0.81869931    -0.17000
C2059       C  0.00240472  0.04453863  0.81826930    -0.16500
C2060       C  0.94587020  0.49260811  0.81874251    -0.16900
C2061       C  0.65225086  0.33442226  0.87311070     0.45900
H2062       H  0.65430133  0.33639745  0.85847916    -0.03200
C2063       C  0.64849460  0.32790185  0.90760325     0.45900
H2064       H  0.64676916  0.32481075  0.92231280    -0.03200
C2065       C  0.63670287  0.29400968  0.87968907    -0.16900
C2066       C  0.69164071  0.35681885  0.88262728    -0.16600
C2067       C  0.62608786  0.34872449  0.88164647    -0.17000
C2068       C  0.63456168  0.29084971  0.89775579    -0.17000
C2069       C  0.68931936  0.35357673  0.90089634    -0.16500
C2070       C  0.62421021  0.34483079  0.89996263    -0.16900
C2071       C  0.85612434  0.17374204  0.15896759     0.45900
H2072       H  0.85431085  0.16898471  0.17354016    -0.03200
C2073       C  0.86305659  0.18565209  0.12488298     0.45900
H2074       H  0.86694936  0.19208201  0.11052570    -0.03200
C2075       C  0.87934602  0.15734462  0.14998282    -0.16900
C2076       C  0.81679535  0.15552769  0.14876384    -0.16600
C2077       C  0.87630502  0.21555343  0.15382505    -0.17000
C2078       C  0.88337832  0.16391551  0.13201193    -0.17000
C2079       C  0.82070012  0.16263902  0.13059463    -0.16500
C2080       C  0.87941073  0.22152269  0.13588371    -0.16900
C2081       C  0.52597570  0.50233808  0.20766673     0.45900
H2082       H  0.52465872  0.49908251  0.19302881    -0.03200
C2083       C  0.52862722  0.50844571  0.24212920     0.45900
H2084       H  0.52968624  0.51199615  0.25672730    -0.03200
C2085       C  0.56511624  0.02137918  0.21593051    -0.16900
C2086       C  0.50361953  0.02282816  0.21508599    -0.16600
C2087       C  0.50760221  0.46431652  0.21743806    -0.17000
C2088       C  0.56641887  0.02444786  0.23418085    -0.17000
C2089       C  0.50526124  0.02593493  0.23336636    -0.16500
C2090       C  0.50855434  0.46776052  0.23571755    -0.16900
O2091       O  0.79629506  0.07430939  0.36412476    -0.80500
O2092       O  0.87746956  0.22048058  0.31763402    -0.65200
O2093       O  0.85562241  0.14377879  0.35192984    -1.11800
C2094       C  0.79398562  0.20320466  0.38201447     1.06400
O2095       O  0.89509838  0.26383506  0.33827800    -0.78400
O2096       O  0.89057318  0.24827346  0.37305064    -0.66000
Ni2097     Ni  0.83010400  0.09303687  0.34384838     1.34900
C2098       C  0.89530211  0.22421976  0.38188391     0.85100
O2099       O  0.89780291  0.16703875  0.32058438    -0.78900
O2100       O  0.86167418  0.10498974  0.32280742    -0.89200
C2101       C  0.89130154  0.25439871  0.32203035     0.84700
O2102       O  0.78989859  0.09632080  0.33104509    -0.67400
O2103       O  0.81447518  0.23186112  0.37260470    -0.86700
C2104       C  0.79274671  0.12083924  0.31986836     0.85500
C2105       C  0.88899320  0.13405106  0.31584301     1.07100
H2106       H  0.81111568  0.18701941  0.34273541     0.38900
O2107       O  0.83543586  0.19445998  0.34878049    -1.09400
O2108       O  0.87248645  0.18927323  0.38067166    -0.66000
Ni2109     Ni  0.82631986  0.15843876  0.36687880     1.26300
O2110       O  0.82263500  0.15259210  0.31907660    -0.66200
O2111       O  0.79621628  0.17320521  0.38122026    -0.78500
C2112       C  0.79676133  0.08617226  0.37980871     0.84900
O2113       O  0.81625272  0.12034264  0.38384397    -0.65700
Ni2114     Ni  0.85431937  0.24544377  0.35534888     1.27400
Ni2115     Ni  0.86676269  0.18147552  0.33432977     1.26100
H2116       H  0.87936377  0.14842475  0.35784691     0.39500
O2117       O  0.52884837  0.09433404  0.99781778    -0.80500
O2118       O  0.99812800  0.46681777  0.05084819    -0.65200
O2119       O  0.53614471  0.03528099  0.01286089    -1.11800
C2120       C  0.91652190  0.45589047  0.98518162     1.06400
O2121       O  0.97579604  0.41810227  0.03288543    -0.78400
O2122       O  0.98027481  0.42498403  0.99703757    -0.66000
Ni2123     Ni  0.55900303  0.08779647  0.01627992     1.34900
C2124       C  0.50414337  0.44831532  0.98620331     0.85100
O2125       O  0.56618881  0.02783193  0.04575823    -0.78900
O2126       O  0.59123497  0.08613819  0.03513916    -0.89200
C2127       C  0.98290744  0.43183324  0.04854346     0.84700
O2128       O  0.52365015  0.08862649  0.03292530    -0.67400
O2129       O  0.91391031  0.43079110  0.99612452    -0.86700
C2130       C  0.00391844  0.06570616  0.04487533     0.85500
C2131       C  0.59205440  0.06212591  0.04581759     1.07100
H2132       H  0.95398085  0.48498847  0.02343737     0.38900
O2133       O  0.97258141  0.47932299  0.01796832    -1.09400
O2134       O  0.51117030  0.48221146  0.98542180    -0.66000
Ni2135     Ni  0.98893522  0.01246635  0.99946998     1.26300
O2136       O  0.00044458  0.03326360  0.04624268    -0.66200
O2137       O  0.94535663  0.48844959  0.98443649    -0.78500
C2138       C  0.52211384  0.08068204  0.98227998     0.84900
O2139       O  0.51019140  0.04613974  0.97998525    -0.65700
Ni2140     Ni  0.94648932  0.42683871  0.01443792     1.27400
Ni2141     Ni  0.51945278  0.50198473  0.03191513     1.26100
H2142       H  0.55505480  0.03040119  0.00714178     0.39500
C2143       C  0.73279972  0.11720156  0.27867550    -0.22100
C2144       C  0.69643784  0.08852555  0.28337685     0.09900
C2145       C  0.69158176  0.07100377  0.30006254     0.10300
C2146       C  0.72318903  0.08302116  0.31181640    -0.17000
C2147       C  0.76001326  0.11160457  0.30718071    -0.27400
C2148       C  0.76475123  0.12893815  0.29025927     0.18600
C2149       C  0.66471084  0.07485017  0.26998070     0.12600
C2150       C  0.65337096  0.03868734  0.30521596    -0.11800
H2151       H  0.71915238  0.06943707  0.32462428     0.12900
C2152       C  0.80340458  0.15866208  0.28384702    -0.22600
H2153       H  0.73631012  0.12986913  0.26565358     0.08500
C2154       C  0.63627190  0.08635161  0.26988645     0.04900
C2155       C  0.60540025  0.07021048  0.25763102    -0.19800
C2156       C  0.60219179  0.04274378  0.24547893    -0.12100
C2157       C  0.63124850  0.03162971  0.24560179     0.13600
C2158       C  0.66241043  0.04847783  0.25756004    -0.22500
C2159       C  0.63862118  0.11570151  0.28265377    -0.05600
H2160       H  0.58330926  0.07876122  0.25767218     0.15100
C2161       C  0.62950528  0.00041024  0.23442924    -0.15800
H2162       H  0.68429407  0.03962756  0.25778415     0.09400
H2163       H  0.80179149  0.16722674  0.26995387     0.07300
H2164       H  0.82451790  0.14799158  0.28418388     0.08500
H2165       H  0.81384318  0.18392686  0.29230831     0.07500
H2166       H  0.64492694  0.52038966  0.29245679     0.02400
H2167       H  0.63078842  0.04743558  0.30533988     0.02900
H2168       H  0.65271228  0.52979414  0.31590517     0.06400
H2169       H  0.61413237  0.12159869  0.28075762     0.05400
H2170       H  0.66583532  0.14199637  0.28052277    -0.00400
H2171       H  0.63810394  0.10640037  0.29657360     0.01100
H2172       H  0.65366426  0.01163224  0.22487116     0.04700
H2173       H  0.60201700  0.98533942  0.22713123     0.06700
H2174       H  0.63436288  0.48370903  0.24400971     0.07600
C2175       C  0.91112869  0.34174502  0.29613085    -0.22100
C2176       C  0.93259302  0.33961519  0.28195470     0.09900
C2177       C  0.93868925  0.30845105  0.28031867     0.10300
C2178       C  0.92430690  0.28054985  0.29340309    -0.17000
C2179       C  0.90444805  0.28354181  0.30815050    -0.27400
C2180       C  0.89677694  0.31401242  0.30924023     0.18600
C2181       C  0.95126993  0.37198903  0.26993017     0.12600
C2182       C  0.96070765  0.30499032  0.26486949    -0.11800
H2183       H  0.92946025  0.25683729  0.29236554     0.12900
C2184       C  0.87265757  0.31704773  0.32389051    -0.22600
H2185       H  0.90630757  0.36567279  0.29710989     0.08500
C2186       C  0.93194643  0.37659276  0.25508084     0.04900
C2187       C  0.95107700  0.40849734  0.24449143    -0.19800
C2188       C  0.98939926  0.43563680  0.24820131    -0.12100
C2189       C  0.50848215  0.43086455  0.26336119     0.13600
C2190       C  0.98904632  0.39909016  0.27393738    -0.22500
C2191       C  0.89137434  0.34771343  0.25035538    -0.05600
H2192       H  0.93604715  0.41222465  0.23316469     0.15100
C2193       C  0.54983577  0.45771013  0.26814359    -0.15800
H2194       H  0.50334383  0.39510256  0.28552257     0.09400
H2195       H  0.84422940  0.29140419  0.32421920     0.07300
H2196       H  0.86736636  0.34118666  0.32186541     0.08500
H2197       H  0.88758411  0.32097529  0.33692221     0.07500
H2198       H  0.99043775  0.32881320  0.26488118     0.02400
H2199       H  0.94600915  0.30500456  0.25219044     0.02900
H2200       H  0.96268566  0.27878393  0.26552311     0.06400
H2201       H  0.88064129  0.35546955  0.23818487     0.05400
H2202       H  0.87181764  0.34467455  0.26145915    -0.00400
H2203       H  0.89037126  0.32048193  0.24788601     0.01100
H2204       H  0.55258045  0.48408157  0.27345242     0.04700
H2205       H  0.56836305  0.46330178  0.25641899     0.06700
H2206       H  0.56114858  0.44625172  0.27867155     0.07600
C2207       C  0.94642984  0.04763036  0.26647440    -0.22100
C2208       C  0.96032849  0.08583106  0.26372588     0.09900
C2209       C  0.98851464  0.10446802  0.25067233     0.10300
C2210       C  0.00299107  0.08447523  0.24100620    -0.17000
C2211       C  0.98927403  0.04616041  0.24391862    -0.27400
C2212       C  0.96005562  0.02744454  0.25660818     0.18600
C2213       C  0.94446514  0.10493367  0.27497956     0.12600
C2214       C  0.00259821  0.14506552  0.24673536    -0.11800
H2215       H  0.52484638  0.09865751  0.23103114     0.12900
C2216       C  0.94190282  0.98596641  0.25941696    -0.22600
H2217       H  0.92450248  0.03347173  0.27641723     0.08500
C2218       C  0.90586281  0.09746106  0.27286543     0.04900
C2219       C  0.88907570  0.10899465  0.28607197    -0.19800
C2220       C  0.91015485  0.12832327  0.30119830    -0.12100
C2221       C  0.94956795  0.13819323  0.30272328     0.13600
C2222       C  0.96627881  0.12617489  0.28959423    -0.22500
C2223       C  0.88225345  0.07686955  0.25678587    -0.05600
H2224       H  0.85897282  0.10197001  0.28485713     0.15100
C2225       C  0.97330675  0.15946716  0.31863781    -0.15800
H2226       H  0.99585847  0.13171034  0.29118138     0.09400
H2227       H  0.91680757  0.97566069  0.26842896     0.07300
H2228       H  0.96301851  0.97883230  0.26565740     0.08500
H2229       H  0.93152884  0.97122951  0.24650231     0.07500
H2230       H  0.01642325  0.16204122  0.25879286     0.02400
H2231       H  0.97789132  0.14927650  0.24256790     0.02900
H2232       H  0.02402082  0.15515047  0.23586610     0.06400
H2233       H  0.35286402  0.07411803  0.25703003     0.05400
H2234       H  0.87896161  0.04835366  0.25623793    -0.00400
H2235       H  0.39671731  0.09219014  0.24458318     0.01100
H2236       H  0.00335959  0.16413356  0.31791150     0.04700
H2237       H  0.96025956  0.14365735  0.33099035     0.06700
H2238       H  0.97442055  0.18711239  0.31932769     0.07600
C2239       C  0.89122592  0.30205489  0.10635708    -0.22100
C2240       C  0.93143850  0.32280903  0.10536544     0.09900
C2241       C  0.95452954  0.31341358  0.11642707     0.10300
C2242       C  0.93683165  0.28141103  0.12710053    -0.17000
C2243       C  0.89655861  0.25901194  0.12724251    -0.27400
C2244       C  0.87351256  0.27073682  0.11743418     0.18600
C2245       C  0.94836164  0.35184459  0.09143891     0.12600
C2246       C  0.99778463  0.33659771  0.11661251    -0.11800
H2247       H  0.95478189  0.27290891  0.13457789     0.12900
C2248       C  0.83024792  0.25099714  0.11840124    -0.22600
H2249       H  0.87352634  0.30991972  0.09814585     0.08500
C2250       C  0.95576309  0.34280922  0.07436165     0.04900
C2251       C  0.96853654  0.36996243  0.06095734    -0.19800
C2252       C  0.97384311  0.40610472  0.06407178    -0.12100
C2253       C  0.96726946  0.41530345  0.08147607     0.13600
C2254       C  0.95461175  0.38796752  0.09489833    -0.22500
C2255       C  0.94910180  0.30408363  0.07015146    -0.05600
H2256       H  0.97361067  0.36252425  0.04781414     0.15100
C2257       C  0.47220717  0.45320636  0.08598483    -0.15800
H2258       H  0.94870183  0.39449104  0.10808317     0.09400
H2259       H  0.81761329  0.23784366  0.10537438     0.07300
H2260       H  0.82022168  0.27139851  0.12170923     0.08500
H2261       H  0.81941828  0.22953906  0.12892170     0.07500
H2262       H  0.00597265  0.36554250  0.12073556     0.02400
H2263       H  0.00928963  0.33714867  0.10316181     0.02900
H2264       H  0.01148900  0.32537230  0.12606866     0.06400
H2265       H  0.95599863  0.30157335  0.05611178     0.05400
H2266       H  0.91840783  0.28350833  0.07236559    -0.00400
H2267       H  0.96757863  0.29704789  0.07885524     0.01100
H2268       H  0.45330354  0.45974763  0.07730071     0.04700
H2269       H  0.50277549  0.47447908  0.08428359     0.06700
H2270       H  0.46453182  0.45479799  0.10000218     0.07600
C2271       C  0.65630449  0.07449118  0.08682797    -0.22100
C2272       C  0.68709290  0.11007673  0.08356410     0.09900
C2273       C  0.68707557  0.12910831  0.06794321     0.10300
C2274       C  0.65628627  0.11212321  0.05585343    -0.17000
C2275       C  0.62490568  0.07636483  0.05890951    -0.27400
C2276       C  0.62509473  0.05732672  0.07476412     0.18600
C2277       C  0.72123255  0.12527845  0.09555831     0.12600
C2278       C  0.71961772  0.16751667  0.06405020    -0.11800
H2279       H  0.65694203  0.12723509  0.04387217     0.12900
C2280       C  0.59263877  0.01939989  0.07934566    -0.22600
H2281       H  0.65701202  0.05994168  0.09880648     0.08500
C2282       C  0.72308257  0.14383887  0.11158142     0.04900
C2283       C  0.75672576  0.15770620  0.12216429    -0.19800
C2284       C  0.78793404  0.15189342  0.11751786    -0.12100
C2285       C  0.78572133  0.13338440  0.10117367     0.13600
C2286       C  0.75260101  0.12082482  0.09045230    -0.22500
C2287       C  0.68939436  0.14841775  0.11759921    -0.05600
H2288       H  0.75809150  0.17198061  0.13448373     0.15100
C2289       C  0.81579249  0.12306203  0.09544332    -0.15800
H2290       H  0.75058750  0.10639208  0.07808242     0.09400
H2291       H  0.57309933  0.51361837  0.07729301     0.07300
H2292       H  0.60768451  0.50213334  0.08694652     0.08500
H2293       H  0.59796024  0.49545022  0.06353368     0.07500
H2294       H  0.74711814  0.16656319  0.06294606     0.02400
H2295       H  0.72227432  0.18689670  0.07495140     0.02900
H2296       H  0.71476380  0.17884015  0.05138732     0.06400
H2297       H  0.69552200  0.16349883  0.13049141     0.05400
H2298       H  0.66382714  0.12057575  0.11933123    -0.00400
H2299       H  0.68261674  0.16440896  0.10750439     0.01100
H2300       H  0.80629007  0.10450042  0.08359779     0.04700
H2301       H  0.82081015  0.10750497  0.10623871     0.06700
H2302       H  0.84283878  0.14787628  0.09163028     0.07600
C2303       C  0.97492140  0.09009628  0.08864016    -0.22100
C2304       C  0.95160380  0.10514751  0.08269293     0.09900
C2305       C  0.94513922  0.10701477  0.06430873     0.10300
C2306       C  0.96210407  0.09338833  0.05218101    -0.17000
C2307       C  0.98519739  0.07795175  0.05811717    -0.27400
C2308       C  0.99213740  0.07674241  0.07654572     0.18600
C2309       C  0.93488484  0.11954336  0.09598241     0.12600
C2310       C  0.92033739  0.12330754  0.05755479    -0.11800
H2311       H  0.95739355  0.09478858  0.03802335     0.12900
C2312       C  0.01909403  0.06308825  0.08345286    -0.22600
H2313       H  0.98009035  0.08936292  0.10279753     0.08500
C2314       C  0.90131400  0.09551232  0.10527624     0.04900
C2315       C  0.88586490  0.11072316  0.11731387    -0.19800
C2316       C  0.90286682  0.14930970  0.12012603    -0.12100
C2317       C  0.93715050  0.17315212  0.11114851     0.13600
C2318       C  0.95288319  0.15796082  0.09920875    -0.22500
C2319       C  0.88137428  0.05400536  0.10218423    -0.05600
H2320       H  0.85945249  0.09248108  0.12397492     0.15100
C2321       C  0.95733531  0.21448200  0.11416617    -0.15800
H2322       H  0.97900884  0.17610949  0.09213218     0.09400
H2323       H  0.01986348  0.53855427  0.07992722     0.07300
H2324       H  0.02223666  0.06530442  0.09816541     0.08500
H2325       H  0.04809531  0.07984496  0.07760711     0.07500
H2326       H  0.93303872  0.15294115  0.06170695     0.02400
H2327       H  0.89089820  0.10745687  0.06307946     0.02900
H2328       H  0.91788843  0.12218525  0.04281023     0.06400
H2329       H  0.85509454  0.03935300  0.11038718     0.05400
H2330       H  0.90116953  0.04274228  0.10571652    -0.00400
H2331       H  0.87270966  0.04792073  0.08796959     0.01100
H2332       H  0.98504392  0.22870956  0.10694602     0.04700
H2333       H  0.96358239  0.22039880  0.12858209     0.06700
H2334       H  0.93872167  0.22596471  0.10916722     0.07600
C2335       C  0.98121107  0.07924086  0.18019655    -0.22100
C2336       C  0.94639182  0.07560506  0.18658822     0.09900
C2337       C  0.92862191  0.05134372  0.20106505     0.10300
C2338       C  0.94631586  0.03182994  0.20871860    -0.17000
C2339       C  0.98307973  0.03820674  0.20350868    -0.27400
C2340       C  0.50052047  0.06209515  0.18879012     0.18600
C2341       C  0.92927948  0.09737358  0.17785520     0.12600
C2342       C  0.89223559  0.04747876  0.20926235    -0.11800
H2343       H  0.93457365  0.51512398  0.21933622     0.12900
C2344       C  0.54048337  0.07234876  0.18276290    -0.22600
H2345       H  0.49422781  0.09683196  0.16872849     0.08500
C2346       C  0.94884169  0.13692101  0.17718568     0.04900
C2347       C  0.93203525  0.15561803  0.16782359    -0.19800
C2348       C  0.89524496  0.13600064  0.16003706    -0.12100
C2349       C  0.87441315  0.09678518  0.16220455     0.13600
C2350       C  0.89246813  0.07799133  0.17012146    -0.22500
C2351       C  0.98663020  0.15959227  0.18687225    -0.05600
H2352       H  0.94742413  0.18576016  0.16678538     0.15100
C2353       C  0.83272632  0.07380584  0.15701197    -0.15800
H2354       H  0.87726594  0.04778892  0.17048789     0.09400
H2355       H  0.55022110  0.09336645  0.17192805     0.07300
H2356       H  0.54182581  0.04774224  0.17753771     0.08500
H2357       H  0.56063104  0.08490968  0.19407954     0.07500
H2358       H  0.86750627  0.03360664  0.19992041     0.02400
H2359       H  0.89619643  0.07545633  0.21281740     0.02900
H2360       H  0.89061179  0.53672147  0.22263791     0.06400
H2361       H  0.99631160  0.18995008  0.18598641     0.05400
H2362       H  0.00953898  0.15478524  0.18109400    -0.00400
H2363       H  0.98333109  0.15179747  0.20116587     0.01100
H2364       H  0.81556092  0.06018116  0.16901291     0.04700
H2365       H  0.82911728  0.05181769  0.14737171     0.06700
H2366       H  0.82114318  0.09102788  0.15107675     0.07600
C2367       C  0.71203048  0.08452068  0.16004375    -0.22100
C2368       C  0.70827808  0.09680597  0.17694842     0.09900
C2369       C  0.74189989  0.12478917  0.18542525     0.10300
C2370       C  0.77577254  0.14408102  0.17559341    -0.17000
C2371       C  0.77935129  0.13270972  0.15838201    -0.27400
C2372       C  0.74767545  0.09964394  0.15148003     0.18600
C2373       C  0.66970365  0.07814113  0.18568584     0.12600
C2374       C  0.74399661  0.13399888  0.20495970    -0.11800
H2375       H  0.79986683  0.16764748  0.18184376     0.12900
C2376       C  0.75011029  0.07730837  0.13611909    -0.22600
H2377       H  0.68726753  0.06159811  0.15372304     0.08500
C2378       C  0.65386076  0.09818344  0.19454424     0.04900
C2379       C  0.62113868  0.07874017  0.20504045    -0.19800
C2380       C  0.59994220  0.03971704  0.20463480    -0.12100
C2381       C  0.61256996  0.01968099  0.19367768     0.13600
C2382       C  0.64808723  0.03898533  0.18509521    -0.22500
C2383       C  0.66954565  0.13970428  0.19274207    -0.05600
H2384       H  0.61105406  0.09430927  0.21304089     0.15100
C2385       C  0.59063631  0.97800746  0.19123168    -0.15800
H2386       H  0.65907932  0.02305210  0.17801355     0.09400
H2387       H  0.72994785  0.07562779  0.12531032     0.07300
H2388       H  0.74162886  0.04853323  0.14068136     0.08500
H2389       H  0.77937594  0.08859517  0.13075638     0.07500
H2390       H  0.71753017  0.11508908  0.21222567     0.02400
H2391       H  0.74977429  0.16322420  0.20664164     0.02900
H2392       H  0.76796340  0.13111655  0.21130829     0.06400
H2393       H  0.67980184  0.15335679  0.20590159     0.05400
H2394       H  0.64622634  0.14540063  0.18786164    -0.00400
H2395       H  0.69331896  0.15248928  0.18307774     0.01100
H2396       H  0.58531385  0.47435325  0.17622745     0.04700
H2397       H  0.56655258  0.46731526  0.19826667     0.06700
H2398       H  0.56390156  0.96473197  0.19894941     0.07600
C2399       C  0.89266523  0.29847115  0.18249774    -0.22100
C2400       C  0.93318824  0.31825777  0.18301895     0.09900
C2401       C  0.95401427  0.30121422  0.17587657     0.10300
C2402       C  0.93379766  0.26498246  0.16883726    -0.17000
C2403       C  0.89364522  0.24710786  0.16664830    -0.27400
C2404       C  0.87275303  0.26410112  0.17357187     0.18600
C2405       C  0.95304460  0.35648761  0.19104550     0.12600
C2406       C  0.99731415  0.32201827  0.17414506    -0.11800
H2407       H  0.94967049  0.25180742  0.16349080     0.12900
C2408       C  0.82983379  0.24776005  0.17106336    -0.22600
H2409       H  0.87639892  0.31068301  0.18839688     0.08500
C2410       C  0.94754919  0.38632340  0.18458444     0.04900
C2411       C  0.96587444  0.42114590  0.19334031    -0.19800
C2412       C  0.99142791  0.42772625  0.20770285    -0.12100
C2413       C  0.49999734  0.39883241  0.21270480     0.13600
C2414       C  0.97887206  0.36331717  0.20523191    -0.22500
C2415       C  0.92350657  0.38209972  0.16815793    -0.05600
H2416       H  0.96001124  0.44329144  0.18899573     0.15100
C2417       C  0.53278928  0.40472406  0.22498056    -0.15800
H2418       H  0.98347831  0.34084123  0.21026468     0.09400
H2419       H  0.81694138  0.22159062  0.16325001     0.07300
H2420       H  0.82350225  0.26803212  0.16385002     0.08500
H2421       H  0.81574610  0.24188528  0.18424271     0.07500
H2422       H  0.51155047  0.32770267  0.18740783     0.02400
H2423       H  0.00606825  0.34866602  0.16698071     0.02900
H2424       H  0.00805285  0.30574136  0.16646567     0.06400
H2425       H  0.92485918  0.40896435  0.16426500     0.05400
H2426       H  0.89284028  0.36189122  0.17047126    -0.00400
H2427       H  0.93433083  0.37240316  0.15686856     0.01100
H2428       H  0.52154060  0.38688975  0.23695233     0.04700
H2429       H  0.55010352  0.43405175  0.22906748     0.06700
H2430       H  0.55254280  0.39696851  0.21799150     0.07600
C2431       C  0.77878496  0.42735520  0.92534019    -0.22100
C2432       C  0.78839831  0.40456419  0.93591082     0.09900
C2433       C  0.76445430  0.36561201  0.93560374     0.10300
C2434       C  0.73155046  0.35027843  0.92464827    -0.17000
C2435       C  0.72254779  0.37262383  0.91348857    -0.27400
C2436       C  0.74578088  0.41189348  0.91429269     0.18600
C2437       C  0.82255354  0.42168925  0.94791014     0.12600
C2438       C  0.77391180  0.34015783  0.94668586    -0.11800
H2439       H  0.71302082  0.32058427  0.92465110     0.12900
C2440       C  0.73570799  0.43823065  0.90437408    -0.22600
H2441       H  0.79673588  0.45737097  0.92596104     0.08500
C2442       C  0.85954619  0.42968986  0.94209773     0.04900
C2443       C  0.89019557  0.44234078  0.95446975    -0.19800
C2444       C  0.88432968  0.44636019  0.97253807    -0.12100
C2445       C  0.84746117  0.43926758  0.97823565     0.13600
C2446       C  0.81706251  0.42713180  0.96581242    -0.22500
C2447       C  0.86624899  0.42369537  0.92299590    -0.05600
H2448       H  0.91851925  0.44780729  0.95016509     0.15100
C2449       C  0.83918000  0.44429137  0.99725480    -0.15800
H2450       H  0.78857168  0.42095772  0.97020298     0.09400
H2451       H  0.75841924  0.45429087  0.89452118     0.07300
H2452       H  0.73381720  0.45795282  0.91391921     0.08500
H2453       H  0.70750033  0.42367663  0.89740567     0.07500
H2454       H  0.77423764  0.34678619  0.96100869     0.02400
H2455       H  0.80266398  0.34388061  0.94298974     0.02900
H2456       H  0.75245159  0.31036446  0.94464693     0.06400
H2457       H  0.89677928  0.43105544  0.92066369     0.05400
H2458       H  0.85883983  0.44130398  0.91420456    -0.00400
H2459       H  0.84788270  0.39394121  0.91935673     0.01100
H2460       H  0.82805687  0.46461271  0.99777318     0.04700
H2461       H  0.86499395  0.45488537  0.00604780     0.06700
H2462       H  0.81697386  0.41717590  0.00260762     0.07600
C2463       C  0.61222606  0.20302783  0.92376912    -0.22100
C2464       C  0.57223760  0.18755292  0.92559644     0.09900
C2465       C  0.55263715  0.20465933  0.91719778     0.10300
C2466       C  0.57396516  0.23836024  0.90817474    -0.17000
C2467       C  0.61414438  0.25455372  0.90690726    -0.27400
C2468       C  0.63336243  0.23590033  0.91414687     0.18600
C2469       C  0.55293659  0.15711444  0.93856689     0.12600
C2470       C  0.50935552  0.18730432  0.91768410    -0.11800
H2471       H  0.55928479  0.25230957  0.90215067     0.12900
C2472       C  0.67579231  0.24954602  0.91202377    -0.22600
H2473       H  0.62721676  0.18984463  0.93028414     0.08500
C2474       C  0.54910188  0.12130848  0.93603874     0.04900
C2475       C  0.53668958  0.09592411  0.95025258    -0.19800
C2476       C  0.52846886  0.10583655  0.96693128    -0.12100
C2477       C  0.52968084  0.14100055  0.96888751     0.13600
C2478       C  0.54217204  0.16609814  0.95469735    -0.22500
C2479       C  0.55841718  0.11010826  0.91845462    -0.05600
H2480       H  0.53518194  0.06891703  0.94854919     0.15100
C2481       C  0.01765131  0.15263964  0.98568949    -0.15800
H2482       H  0.54523020  0.19374070  0.95644237     0.09400
H2483       H  0.68014101  0.22755564  0.90547231     0.07300
H2484       H  0.69007128  0.25537102  0.92530933     0.08500
H2485       H  0.68983195  0.27501611  0.90378838     0.07500
H2486       H  0.49949230  0.18570598  0.93156018     0.02400
H2487       H  0.49627896  0.15877088  0.91195259     0.02900
H2488       H  0.49873284  0.20373129  0.90984037     0.06400
H2489       H  0.55274556  0.08071644  0.91859810     0.05400
H2490       H  0.58927388  0.12810370  0.91531150    -0.00400
H2491       H  0.54035266  0.11297529  0.90777065     0.01100
H2492       H  0.53954636  0.15767663  0.99656715     0.04700
H2493       H  0.98849420  0.13093095  0.98971059     0.06700
H2494       H  0.01652728  0.17911973  0.98389109     0.07600
C2495       C  0.55131632  0.36731491  0.92253098    -0.22100
C2496       C  0.57497678  0.39346529  0.93531600     0.09900
C2497       C  0.61417633  0.40267575  0.93668914     0.10300
C2498       C  0.62897904  0.38599858  0.92506795    -0.17000
C2499       C  0.60549566  0.35993602  0.91217929    -0.27400
C2500       C  0.56588322  0.34987768  0.91115683     0.18600
C2501       C  0.55752679  0.40852302  0.94813800     0.12600
C2502       C  0.64041913  0.43019725  0.95040122    -0.11800
H2503       H  0.65927350  0.39366562  0.92593079     0.12900
C2504       C  0.53793255  0.31994320  0.89882021    -0.22600
H2505       H  0.52098219  0.35959906  0.92180580     0.08500
C2506       C  0.55067664  0.43853624  0.94389553     0.04900
C2507       C  0.53410332  0.45150812  0.95667205    -0.19800
C2508       C  0.52383035  0.43490371  0.97360047    -0.12100
C2509       C  0.53142681  0.40503506  0.97782726     0.13600
C2510       C  0.54809005  0.39237383  0.96503021    -0.22500
C2511       C  0.56096514  0.45684229  0.92591722    -0.05600
H2512       H  0.02836792  0.47425437  0.95329326     0.15100
C2513       C  0.52305713  0.38667506  0.99587346    -0.15800
H2514       H  0.55378338  0.36951869  0.96818275     0.09400
H2515       H  0.52581604  0.33228451  0.88913339     0.07300
H2516       H  0.51405464  0.29820366  0.90666107     0.08500
H2517       H  0.55133575  0.30587240  0.89139739     0.07500
H2518       H  0.62980940  0.41976005  0.96395775     0.02400
H2519       H  0.64112043  0.45746483  0.94840353     0.02900
H2520       H  0.67037548  0.43465550  0.94949119     0.06400
H2521       H  0.05381418  0.48003975  0.92474558     0.05400
H2522       H  0.54467769  0.43602039  0.91540119    -0.00400
H2523       H  0.59234847  0.46832673  0.92372667     0.01100
H2524       H  0.49150480  0.37113438  0.99805384     0.04700
H2525       H  0.53725862  0.40808012  0.00641908     0.06700
H2526       H  0.53399515  0.36626298  0.99715099     0.07600
C2527       C  0.57283920  0.37857733  0.84762844    -0.22100
C2528       C  0.57905864  0.41251587  0.85492692     0.09900
C2529       C  0.60017387  0.42517012  0.87096800     0.10300
C2530       C  0.61768128  0.40536345  0.87836559    -0.17000
C2531       C  0.61035119  0.37044198  0.87159158    -0.27400
C2532       C  0.58682048  0.35663719  0.85611393     0.18600
C2533       C  0.56095869  0.43293175  0.84614111     0.12600
C2534       C  0.60162773  0.45764711  0.88109402    -0.11800
H2535       H  0.63599905  0.41663380  0.89000732     0.12900
C2536       C  0.57296176  0.31768375  0.84932088    -0.22600
H2537       H  0.55527295  0.36839293  0.83566141     0.08500
C2538       C  0.58304274  0.46707201  0.83730074     0.04900
C2539       C  0.56441092  0.48599367  0.83002862    -0.19800
C2540       C  0.52406339  0.46938501  0.82910242    -0.12100
C2541       C  0.50194352  0.43430200  0.83729145     0.13600
C2542       C  0.52069831  0.41714354  0.84619808    -0.22500
C2543       C  0.62565185  0.48215152  0.83431519    -0.05600
H2544       H  0.58148312  0.51355960  0.82470548     0.15100
C2545       C  0.95863821  0.41389886  0.83673746    -0.15800
H2546       H  0.50371773  0.39055098  0.85272473     0.09400
H2547       H  0.59723702  0.31301185  0.84552179     0.07300
H2548       H  0.55409154  0.31165199  0.83736873     0.08500
H2549       H  0.55545602  0.29789268  0.85975799     0.07500
H2550       H  0.57182488  0.45163097  0.88424374     0.02400
H2551       H  0.61548839  0.48370333  0.87328316     0.02900
H2552       H  0.61791745  0.46255448  0.89382165     0.06400
H2553       H  0.63811563  0.50858104  0.82664757     0.05400
H2554       H  0.63024272  0.46147839  0.82662671    -0.00400
H2555       H  0.64184379  0.48767808  0.84702625     0.01100
H2556       H  0.94849503  0.38559605  0.83109986     0.04700
H2557       H  0.94696599  0.42810086  0.82821379     0.06700
H2558       H  0.94708427  0.41136418  0.85035724     0.07600
C2559       C  0.54392716  0.12096191  0.85454283    -0.22100
C2560       C  0.57337724  0.14994791  0.84502622     0.09900
C2561       C  0.58450568  0.14153016  0.82864363     0.10300
C2562       C  0.56298759  0.10563707  0.82137889    -0.17000
C2563       C  0.52912806  0.07816961  0.82942220    -0.27400
C2564       C  0.02201510  0.08514203  0.84720970     0.18600
C2565       C  0.59053665  0.18872803  0.85226750     0.12600
C2566       C  0.61793200  0.17048587  0.81833264    -0.11800
H2567       H  0.57198178  0.09951878  0.80884419     0.12900
C2568       C  0.99298719  0.05577742  0.85917310    -0.22600
H2569       H  0.03792239  0.12675563  0.86786425     0.08500
C2570       C  0.56736423  0.20590123  0.85537346     0.04900
C2571       C  0.58359619  0.24077714  0.86381870    -0.19800
C2572       C  0.62299520  0.26062937  0.86795389    -0.12100
C2573       C  0.64683037  0.24486764  0.86354124     0.13600
C2574       C  0.63009327  0.20859670  0.85642759    -0.22500
C2575       C  0.52556139  0.18789739  0.84964708    -0.05600
H2576       H  0.56498191  0.25178558  0.86793350     0.15100
C2577       C  0.68989018  0.26538882  0.86618648    -0.15800
H2578       H  0.64809378  0.19566423  0.85436955     0.09400
H2579       H  0.98871325  0.06787532  0.87160988     0.07300
H2580       H  0.00354481  0.03608604  0.86323335     0.08500
H2581       H  0.96472491  0.04076593  0.85255884     0.07500
H2582       H  0.64534057  0.17857044  0.82561413     0.02400
H2583       H  0.61415664  0.19544103  0.81625215     0.02900
H2584       H  0.62043041  0.15976725  0.80514459     0.06400
H2585       H  0.51296662  0.20672333  0.85180042     0.05400
H2586       H  0.50818667  0.16210768  0.85733368    -0.00400
H2587       H  0.52304748  0.18114024  0.83524127     0.01100
H2588       H  0.69897104  0.24916147  0.87504697     0.04700
H2589       H  0.70028105  0.29348072  0.87196905     0.06700
H2590       H  0.70404914  0.26880644  0.85313505     0.07600
C2591       C  0.77108904  0.42314171  0.85142329    -0.22100
C2592       C  0.80137687  0.41628981  0.85641907     0.09900
C2593       C  0.79602496  0.39087225  0.87021597     0.10300
C2594       C  0.75954464  0.37085949  0.87784027    -0.17000
C2595       C  0.72883672  0.37744374  0.87292652    -0.27400
C2596       C  0.73497466  0.40448708  0.85964560     0.18600
C2597       C  0.83827602  0.43565277  0.84680063     0.12600
C2598       C  0.82911579  0.38594273  0.87738539    -0.11800
H2599       H  0.75516486  0.35026147  0.88794362     0.12900
C2600       C  0.70469842  0.41537956  0.85450850    -0.22600
H2601       H  0.77586280  0.44331474  0.84101864     0.08500
C2602       C  0.84803576  0.41713882  0.83369544     0.04900
C2603       C  0.88370051  0.43622563  0.82526373    -0.19800
C2604       C  0.90924864  0.47397093  0.82894615    -0.12100
C2605       C  0.89759249  0.49333961  0.84089848     0.13600
C2606       C  0.86279623  0.47360597  0.85007287    -0.22500
C2607       C  0.82004433  0.37792263  0.82791531    -0.05600
H2608       H  0.89121512  0.42175161  0.81532714     0.15100
C2609       C  0.90502564  0.03364031  0.83450732    -0.15800
H2610       H  0.85413438  0.48818764  0.85947870     0.09400
H2611       H  0.71638452  0.43981219  0.84544867     0.07300
H2612       H  0.69414418  0.42315566  0.86650545     0.08500
H2613       H  0.68038376  0.39242672  0.84733784     0.07500
H2614       H  0.85221271  0.41311947  0.88239359     0.02400
H2615       H  0.84115515  0.37573536  0.86687221     0.02900
H2616       H  0.82003124  0.36567802  0.88853623     0.06400
H2617       H  0.83196225  0.36810503  0.81712033     0.05400
H2618       H  0.79310417  0.37702782  0.82283415    -0.00400
H2619       H  0.81292136  0.35825141  0.83918926     0.05000
H2620       H  0.88337946  0.03894962  0.82736531     0.04700
H2621       H  0.93174871  0.04584967  0.82661226     0.06700
H2622       H  0.91141300  0.04828905  0.84751517     0.07600
C2623       C  0.85470394  0.47816553  0.77537919    -0.22100
C2624       C  0.84653301  0.44634363  0.76527012     0.09900
C2625       C  0.87107811  0.43026570  0.76682645     0.10300
C2626       C  0.90295751  0.44616000  0.77853087    -0.17000
C2627       C  0.91118740  0.47788913  0.78872390    -0.27400
C2628       C  0.88693523  0.49439319  0.78692850     0.18600
C2629       C  0.81341952  0.43151606  0.75242996     0.12600
C2630       C  0.86391327  0.39661986  0.75594753    -0.11800
H2631       H  0.92161437  0.43373716  0.77970237     0.12900
C2632       C  0.89496337  0.52981562  0.79641320    -0.22600
H2633       H  0.83626164  0.49093055  0.77394638     0.08500
C2634       C  0.77614855  0.40383058  0.75725839     0.04900
C2635       C  0.74589936  0.39081785  0.74456595    -0.19800
C2636       C  0.75179998  0.40546586  0.72721392    -0.12100
C2637       C  0.78943471  0.43315400  0.72241376     0.13600
C2638       C  0.81965475  0.44555792  0.73504907    -0.22500
C2639       C  0.76826771  0.38850442  0.77589574    -0.05600
H2640       H  0.71722384  0.36989458  0.74837777     0.15100
C2641       C  0.79834936  0.44926196  0.70389480    -0.15800
H2642       H  0.84840207  0.46662021  0.73140473     0.09400
H2643       H  0.87065289  0.52433270  0.80534931     0.07300
H2644       H  0.90727012  0.05066212  0.77413463     0.08500
H2645       H  0.92446268  0.04536658  0.79551301     0.07500
H2646       H  0.86503131  0.40331010  0.74156698     0.02400
H2647       H  0.83510819  0.37303936  0.75901538     0.02900
H2648       H  0.88583060  0.38753880  0.75875823     0.06400
H2649       H  0.73760830  0.36720281  0.77754836     0.05400
H2650       H  0.77498006  0.41144342  0.78550387    -0.00400
H2651       H  0.78647828  0.37531601  0.77910486     0.01100
H2652       H  0.78329053  0.46576269  0.70115489     0.04700
H2653       H  0.78922410  0.42645045  0.69396469     0.06700
H2654       H  0.82966966  0.46825559  0.70217705     0.07600
C2655       C  0.52633536  0.18312297  0.74484596    -0.22100
C2656       C  0.54741567  0.18368401  0.76005547     0.09900
C2657       C  0.58541209  0.21298681  0.76240044     0.10300
C2658       C  0.60238963  0.23970951  0.74895098    -0.17000
C2659       C  0.58273642  0.23692304  0.73288806    -0.27400
C2660       C  0.54351682  0.20924468  0.73114841     0.18600
C2661       C  0.53333461  0.14889906  0.77056294     0.12600
C2662       C  0.60891122  0.21461329  0.77857095    -0.11800
H2663       H  0.63216085  0.26117411  0.75044576     0.12900
C2664       C  0.51965499  0.20659560  0.71485944    -0.22600
H2665       H  0.49721846  0.16044910  0.74310487     0.08500
C2666       C  0.51204219  0.14192850  0.78632033     0.04900
C2667       C  0.00099031  0.10827786  0.79550901    -0.19800
C2668       C  0.51080184  0.08127067  0.78927943    -0.12100
C2669       C  0.53169038  0.08864940  0.77315322     0.13600
C2670       C  0.54231575  0.12205847  0.76412800    -0.22500
C2671       C  0.00087935  0.16991238  0.79333262    -0.05600
H2672       H  0.98454175  0.10285157  0.80761379     0.15100
C2673       C  0.54503455  0.06342373  0.76497375    -0.15800
H2674       H  0.55858973  0.12763326  0.75192761     0.09400
H2675       H  0.48895846  0.18537895  0.71652021     0.07300
H2676       H  0.53043486  0.19826633  0.70309751     0.08500
H2677       H  0.52073802  0.23389450  0.71235753     0.07500
H2678       H  0.61214395  0.18911662  0.77920164     0.02400
H2679       H  0.59425209  0.21662696  0.79066964     0.02900
H2680       H  0.63819810  0.23913799  0.77831406     0.06400
H2681       H  0.98378330  0.15989424  0.80568563     0.05400
H2682       H  0.98315145  0.17483521  0.78319315    -0.00400
H2683       H  0.52700093  0.19655358  0.79632128     0.01100
H2684       H  0.53173989  0.05442086  0.75156287     0.04700
H2685       H  0.53766968  0.03859818  0.77287560     0.06700
H2686       H  0.57689165  0.07856732  0.76367782     0.07600
C2687       C  0.58312116  0.39975000  0.75906122    -0.22100
C2688       C  0.56409680  0.41914102  0.75301619     0.09900
C2689       C  0.56288505  0.42612764  0.73470870     0.10300
C2690       C  0.58150596  0.41402058  0.72276373    -0.17000
C2691       C  0.60141672  0.39531705  0.72877427    -0.27400
C2692       C  0.60193439  0.38771013  0.74715150     0.18600
C2693       C  0.54953117  0.43572595  0.76620231     0.12600
C2694       C  0.54296133  0.44734330  0.72788597    -0.11800
H2695       H  0.58115334  0.41978288  0.70869137     0.12900
C2696       C  0.62404365  0.36893100  0.75442200    -0.22600
H2697       H  0.58428155  0.39515251  0.77321970     0.08500
C2698       C  0.51114341  0.41726694  0.77204834     0.04900
C2699       C  0.99847610  0.43580509  0.78368372    -0.19800
C2700       C  0.52323372  0.47246747  0.78922287    -0.12100
C2701       C  0.56251569  0.49001894  0.78415284     0.13600
C2702       C  0.57496568  0.47132946  0.77261555    -0.22500
C2703       C  0.98370302  0.37802976  0.76617757    -0.05600
H2704       H  0.96922627  0.42163848  0.78850640     0.15100
C2705       C  0.58178064  0.01779217  0.79054792    -0.15800
H2706       H  0.60471326  0.48490236  0.76831351     0.09400
H2707       H  0.61136408  0.33996888  0.74928315     0.07300
H2708       H  0.62316493  0.36740378  0.76917760     0.08500
H2709       H  0.65473507  0.38483395  0.75046842     0.07500
H2710       H  0.55658225  0.47567491  0.73386071     0.02400
H2711       H  0.51203102  0.43241071  0.73147593     0.02900
H2712       H  0.54479850  0.45041222  0.71319011     0.06400
H2713       H  0.95474363  0.36770454  0.77210039     0.05400
H2714       H  0.99519349  0.35908408  0.77032398    -0.00400
H2715       H  0.98031746  0.37702419  0.75148486     0.01100
H2716       H  0.60127574  0.01135163  0.79883484     0.04700
H2717       H  0.56958755  0.03185156  0.79884281     0.06700
H2718       H  0.59929608  0.03781394  0.78008547     0.07600
C2719       C  0.74320053  0.27443986  0.44062795    -0.22100
C2720       C  0.71367579  0.24188291  0.43312148     0.09900
C2721       C  0.67511897  0.23003456  0.43774215     0.10300
C2722       C  0.66699808  0.25205652  0.44943554    -0.17000
C2723       C  0.69636389  0.28620073  0.45598702    -0.27400
C2724       C  0.73513830  0.29723633  0.45164031     0.18600
C2725       C  0.72467952  0.22400700  0.41895896     0.12600
C2726       C  0.64275719  0.19474451  0.43011399    -0.11800
H2727       H  0.63750586  0.24295613  0.45314650     0.12900
C2728       C  0.76879499  0.33350483  0.45740614    -0.22600
H2729       H  0.77280995  0.28338057  0.43691787     0.08500
C2730       C  0.72960824  0.23791272  0.40145465     0.04900
C2731       C  0.75014305  0.22840636  0.38937783    -0.19800
C2732       C  0.76646906  0.20579000  0.39442957    -0.12100
C2733       C  0.75900867  0.18958700  0.41163867     0.13600
C2734       C  0.73813864  0.19902985  0.42371643    -0.22500
C2735       C  0.71518581  0.26459951  0.39582274    -0.05600
H2736       H  0.75504296  0.24019447  0.37611114     0.15100
C2737       C  0.77500148  0.16449461  0.41781802    -0.15800
H2738       H  0.73441480  0.18882299  0.43727201     0.09400
H2739       H  0.78498366  0.34928991  0.44555194     0.07300
H2740       H  0.78851016  0.32794411  0.46599532     0.08500
H2741       H  0.75968891  0.35135083  0.46460201     0.07500
H2742       H  0.64700476  0.17064041  0.43388860     0.02400
H2743       H  0.64222563  0.19662663  0.41539569     0.02900
H2744       H  0.61428075  0.18962207  0.43510064     0.06400
H2745       H  0.72174501  0.27298554  0.38167923     0.05400
H2746       H  0.72903975  0.29025491  0.40409496    -0.00400
H2747       H  0.68347520  0.25123783  0.39742428     0.01100
H2748       H  0.80692544  0.17935245  0.41686285     0.04700
H2749       H  0.76286560  0.13885229  0.40953145     0.06700
H2750       H  0.76750364  0.15572013  0.43186416     0.07600
C2751       C  0.99664652  0.27936800  0.40163319    -0.22100
C2752       C  0.49166859  0.26381640  0.41866282     0.09900
C2753       C  0.95518209  0.23492087  0.42358772     0.10300
C2754       C  0.92430295  0.22209189  0.41128325    -0.17000
C2755       C  0.92904858  0.23790316  0.39423074    -0.27400
C2756       C  0.96590580  0.26687425  0.38934772     0.18600
C2757       C  0.52580093  0.27716525  0.43071809     0.12600
C2758       C  0.94901537  0.21753597  0.44177902    -0.11800
H2759       H  0.89619633  0.20000061  0.41508008     0.12900
C2760       C  0.97357128  0.28391620  0.37101037    -0.22600
H2761       H  0.52487317  0.30118223  0.39788609     0.08500
C2762       C  0.55381204  0.26560314  0.42831811     0.04900
C2763       C  0.58622808  0.27960977  0.43959430    -0.19800
C2764       C  0.59128042  0.30446807  0.45351876    -0.12100
C2765       C  0.56400323  0.31746723  0.45536054     0.13600
C2766       C  0.53120085  0.30298426  0.44416895    -0.22500
C2767       C  0.54925186  0.23801699  0.41400293    -0.05600
H2768       H  0.60742951  0.27042642  0.43769339     0.15100
C2769       C  0.56943980  0.34800777  0.46812847    -0.15800
H2770       H  0.01023032  0.31271146  0.44557085     0.09400
H2771       H  0.96503555  0.26170499  0.36079325     0.07300
H2772       H  0.00457403  0.30400299  0.36916199     0.08500
H2773       H  0.95724238  0.29940407  0.36883522     0.07500
H2774       H  0.95525783  0.23907559  0.45212139     0.02400
H2775       H  0.46847947  0.20547165  0.44391219     0.02900
H2776       H  0.91886732  0.19506907  0.44347703     0.06400
H2777       H  0.57335791  0.23126272  0.41425206     0.05400
H2778       H  0.54867479  0.24968984  0.40071662    -0.00400
H2779       H  0.52193659  0.21171342  0.41594581     0.01100
H2780       H  0.56785230  0.37079658  0.46069243     0.04700
H2781       H  0.59774423  0.36072117  0.47506420     0.06700
H2782       H  0.54622638  0.33677537  0.47817608     0.07600
C2783       C  0.71634978  0.50021933  0.40341657    -0.22100
C2784       C  0.73571152  0.50168640  0.41934259     0.09900
C2785       C  0.77168422  0.03203983  0.42287008     0.10300
C2786       C  0.79058623  0.06025020  0.41023943    -0.17000
C2787       C  0.77349877  0.05899435  0.39361526    -0.27400
C2788       C  0.73512465  0.03083918  0.39022815     0.18600
C2789       C  0.72074790  0.46779463  0.43042265     0.12600
C2790       C  0.79253088  0.03226186  0.43981374    -0.11800
H2791       H  0.81976048  0.08205823  0.41290608     0.12900
C2792       C  0.71418890  0.02984374  0.37316021    -0.22600
H2793       H  0.68833529  0.47637619  0.40083517     0.08500
C2794       C  0.69653939  0.46169651  0.44504637     0.04900
C2795       C  0.68561689  0.42968310  0.45551782    -0.19800
C2796       C  0.69879888  0.40394607  0.45177877    -0.12100
C2797       C  0.72165221  0.40959838  0.43644523     0.13600
C2798       C  0.73218954  0.44139787  0.42607074    -0.22500
C2799       C  0.68234668  0.48887101  0.44953262    -0.05600
H2800       H  0.66704798  0.42491195  0.46681757     0.15100
C2801       C  0.73761524  0.38445096  0.43086645    -0.15800
H2802       H  0.75052425  0.44623636  0.41464609     0.09400
H2803       H  0.70993782  0.55082115  0.37121896     0.07300
H2804       H  0.68366899  0.00750152  0.37333608     0.08500
H2805       H  0.72812750  0.02430429  0.36169505     0.07500
H2806       H  0.79723366  0.00759356  0.44007454     0.02400
H2807       H  0.77526893  0.03151997  0.45149613     0.02900
H2808       H  0.82115637  0.05756095  0.44091110     0.06400
H2809       H  0.66349978  0.47982247  0.46137732     0.05400
H2810       H  0.66552149  0.49119362  0.43812073    -0.00400
H2811       H  0.70716559  0.51672088  0.45239832     0.01100
H2812       H  0.72684849  0.37336685  0.41731480     0.04700
H2813       H  0.72960330  0.36075827  0.43979692     0.06700
H2814       H  0.76959528  0.40045271  0.43070582     0.07600
C2815       C  0.73708606  0.27397234  0.61014921    -0.22100
C2816       C  0.73872395  0.24120299  0.61408643     0.09900
C2817       C  0.72444633  0.22303860  0.63039797     0.10300
C2818       C  0.70860138  0.23795758  0.64241814    -0.17000
C2819       C  0.70656422  0.27079582  0.63863778    -0.27400
C2820       C  0.72062584  0.28880274  0.62202257     0.18600
C2821       C  0.75785961  0.22752475  0.60157319     0.12600
C2822       C  0.72639968  0.18809731  0.63521018    -0.11800
H2823       H  0.69807722  0.22395269  0.65502093     0.12900
C2824       C  0.71773812  0.32255775  0.61577142    -0.22600
H2825       H  0.74831874  0.28782627  0.59756990     0.08500
C2826       C  0.73734615  0.20115082  0.58812919     0.04900
C2827       C  0.75672865  0.18700627  0.57767237    -0.19800
C2828       C  0.79626146  0.19916904  0.58022630    -0.12100
C2829       C  0.81681719  0.22649731  0.59340684     0.13600
C2830       C  0.79729115  0.24014529  0.60392263    -0.22500
C2831       C  0.69517038  0.18813108  0.58483910    -0.05600
H2832       H  0.74110399  0.16652720  0.56741514     0.15100
C2833       C  0.85957795  0.24262567  0.59608015    -0.15800
H2834       H  0.81278660  0.26063168  0.61420390     0.09400
H2835       H  0.70346634  0.31670760  0.60247357     0.07300
H2836       H  0.74711453  0.34668412  0.61459823     0.08500
H2837       H  0.70049982  0.33049641  0.62442618     0.07500
H2838       H  0.75689632  0.19396841  0.63550015     0.02400
H2839       H  0.71009488  0.16596500  0.62522707     0.02900
H2840       H  0.71390197  0.17734949  0.64848727     0.06400
H2841       H  0.68353808  0.16764462  0.57375800     0.05400
H2842       H  0.69091536  0.21235290  0.58131266    -0.00400
H2843       H  0.67856984  0.17468177  0.59698922     0.01100
H2844       H  0.87123786  0.26584435  0.60587980     0.04700
H2845       H  0.87430270  0.25384435  0.58327652     0.06700
H2846       H  0.86619804  0.22093681  0.60129280     0.07600
C2847       C  0.94675572  0.19820758  0.60852250    -0.22100
C2848       C  0.97181216  0.23642016  0.60674015     0.09900
C2849       C  0.96613258  0.25622747  0.59265795     0.10300
C2850       C  0.93520469  0.23721535  0.58071117    -0.17000
C2851       C  0.90974857  0.19877611  0.58248086    -0.27400
C2852       C  0.91606651  0.17906894  0.59656600     0.18600
C2853       C  0.00539603  0.25394514  0.61905298     0.12600
C2854       C  0.99227474  0.29745099  0.59043658    -0.11800
H2855       H  0.93037514  0.25266963  0.57014502     0.12900
C2856       C  0.89244532  0.13766524  0.59906389    -0.22600
H2857       H  0.95181224  0.18293965  0.61913996     0.08500
C2858       C  0.00139567  0.26120422  0.63703661     0.04900
C2859       C  0.53309426  0.27279869  0.64867236    -0.19800
C2860       C  0.56858480  0.27720561  0.64274721    -0.12100
C2861       C  0.57268543  0.27056944  0.62461882     0.13600
C2862       C  0.54108096  0.25932458  0.61297905    -0.22500
C2863       C  0.96362745  0.25645351  0.64386395    -0.05600
H2864       H  0.53003755  0.27779558  0.66256489     0.15100
C2865       C  0.60906631  0.27285837  0.61722701    -0.15800
H2866       H  0.54381499  0.25308233  0.59922677     0.09400
H2867       H  0.87742869  0.13167474  0.61201118     0.07300
H2868       H  0.91157393  0.12472057  0.59889160     0.08500
H2869       H  0.87089326  0.12443526  0.58843648     0.07500
H2870       H  0.52228424  0.30291829  0.58810344     0.02400
H2871       H  0.99155266  0.31239597  0.60261075     0.02900
H2872       H  0.98332940  0.30879789  0.57892901     0.06400
H2873       H  0.96566339  0.26401062  0.65816043     0.05400
H2874       H  0.94090455  0.22699470  0.64234434    -0.00400
H2875       H  0.95503377  0.27468449  0.63622406     0.01100
H2876       H  0.60262250  0.24542669  0.61150379     0.04700
H2877       H  0.63206336  0.28015291  0.62735100     0.06700
H2878       H  0.62031267  0.29420277  0.60655685     0.07600
C2879       C  0.76285033  0.00322575  0.62901548    -0.22100
C2880       C  0.74227019  0.99538450  0.61294720     0.09900
C2881       C  0.71562431  0.45735501  0.60867266     0.10300
C2882       C  0.70643125  0.43153430  0.62259133    -0.17000
C2883       C  0.72583304  0.44190401  0.63916402    -0.27400
C2884       C  0.75617305  0.47898029  0.64149635     0.18600
C2885       C  0.75572092  0.02520359  0.59940671     0.12600
C2886       C  0.69459412  0.44528041  0.59108243    -0.11800
H2887       H  0.68342228  0.40328329  0.62058632     0.12900
C2888       C  0.78016395  0.49200732  0.65833604    -0.22600
H2889       H  0.78655127  0.03107676  0.63122285     0.08500
C2890       C  0.74436303  0.05310399  0.59943806     0.04900
C2891       C  0.76315034  0.08413894  0.58823158    -0.19800
C2892       C  0.79334807  0.08810536  0.57721903    -0.12100
C2893       C  0.80441971  0.05976452  0.57724048     0.13600
C2894       C  0.78480282  0.02839313  0.58802469    -0.22500
C2895       C  0.71310459  0.05048409  0.61155145    -0.05600
H2896       H  0.75482186  0.10587463  0.58832987     0.15100
C2897       C  0.83852485  0.06248651  0.56736422    -0.15800
H2898       H  0.79393850  0.00721686  0.58840455     0.09400
H2899       H  0.80369286  0.01466413  0.65780617     0.07300
H2900       H  0.79046032  0.96643447  0.66060067     0.08500
H2901       H  0.76227078  0.49224711  0.66954128     0.07500
H2902       H  0.71546253  0.44971331  0.58037543     0.02400
H2903       H  0.67969152  0.46183570  0.58807036     0.02900
H2904       H  0.67269350  0.41530361  0.59113148     0.06400
H2905       H  0.70771377  0.07464356  0.60986405     0.05400
H2906       H  0.72155564  0.04983816  0.62563174    -0.00400
H2907       H  0.68586020  0.02464439  0.60855039     0.01100
H2908       H  0.85905187  0.06034634  0.57690892     0.04700
H2909       H  0.85444924  0.08916358  0.56030441     0.06700
H2910       H  0.82871422  0.03916825  0.55770139     0.07600
C2911       C  0.76528244  0.21644033  0.51534860    -0.22100
C2912       C  0.76710364  0.24793257  0.52354118     0.09900
C2913       C  0.78725716  0.26042901  0.53982149     0.10300
C2914       C  0.80765912  0.24286213  0.54668383    -0.17000
C2915       C  0.80349070  0.20929554  0.53942130    -0.27400
C2916       C  0.78240984  0.19648697  0.52312360     0.18600
C2917       C  0.74664440  0.26636533  0.51489833     0.12600
C2918       C  0.78422169  0.28964207  0.55090288    -0.11800
H2919       H  0.82524229  0.25442685  0.55849003     0.12900
C2920       C  0.77641442  0.16164646  0.51372086    -0.22600
H2921       H  0.74953485  0.20696472  0.50286316     0.08500
C2922       C  0.76673838  0.30170036  0.50676830     0.04900
C2923       C  0.74576905  0.31754465  0.49869077    -0.19800
C2924       C  0.70570386  0.29696434  0.49623724    -0.12100
C2925       C  0.68560613  0.26136775  0.50420555     0.13600
C2926       C  0.70627372  0.24679020  0.51364772    -0.22500
C2927       C  0.81003515  0.32116504  0.50501938    -0.05600
H2928       H  0.76104257  0.34562673  0.49356006     0.15100
C2929       C  0.64258245  0.23801759  0.50305443    -0.15800
H2930       H  0.69083140  0.21946251  0.51971216     0.09400
H2931       H  0.75380832  0.15301545  0.50317683     0.07300
H2932       H  0.76683052  0.13838551  0.52320191     0.08500
H2933       H  0.80318619  0.16647383  0.50700675     0.07500
H2934       H  0.75351662  0.27976401  0.55418044     0.02400
H2935       H  0.79525879  0.31648602  0.54379130     0.02900
H2936       H  0.80059011  0.29489561  0.56363590     0.06400
H2937       H  0.82070797  0.34777561  0.49757913     0.05400
H2938       H  0.81863334  0.30289360  0.49761381    -0.00400
H2939       H  0.82469197  0.32767585  0.51814357     0.01100
H2940       H  0.63493794  0.21171030  0.49580745     0.04700
H2941       H  0.62916926  0.25270686  0.49613238     0.06700
H2942       H  0.63045595  0.23127627  0.51664777     0.07600
C2943       C  0.76104307  0.47639814  0.49441913    -0.22100
C2944       C  0.74599613  0.48150994  0.51036054     0.09900
C2945       C  0.71445392  0.44981402  0.51801371     0.10300
C2946       C  0.69702590  0.41565905  0.50863777    -0.17000
C2947       C  0.71221574  0.41076200  0.49266335    -0.27400
C2948       C  0.74739754  0.44099236  0.48674459     0.18600
C2949       C  0.76559433  0.02190250  0.51989738     0.12600
C2950       C  0.69996532  0.45078972  0.53639675    -0.11800
H2951       H  0.67140838  0.39268435  0.51398875     0.12900
C2952       C  0.77352757  0.43678201  0.47361593    -0.22600
H2953       H  0.78374329  0.00375079  0.48838352     0.08500
C2954       C  0.80626176  0.04533583  0.52091535     0.04900
C2955       C  0.82130602  0.08138880  0.52819190    -0.19800
C2956       C  0.79755510  0.09279345  0.53690511    -0.12100
C2957       C  0.75709009  0.06960129  0.53601901     0.13600
C2958       C  0.74179316  0.03562305  0.52673229    -0.22500
C2959       C  0.83502183  0.03255981  0.51601963    -0.05600
H2960       H  0.85231354  0.09908600  0.52888151     0.15100
C2961       C  0.72906734  0.07952758  0.54479064    -0.15800
H2962       H  0.71075479  0.01887368  0.52550045     0.09400
H2963       H  0.80226058  0.44606284  0.47991946     0.07300
H2964       H  0.77729949  0.45449252  0.46179103     0.08500
H2965       H  0.76290088  0.40759810  0.46945410     0.07500
H2966       H  0.68376133  0.46660374  0.53649459     0.02400
H2967       H  0.72457032  0.46342017  0.54594914     0.02900
H2968       H  0.67996012  0.42229165  0.54123410     0.06400
H2969       H  0.85574581  0.03839255  0.52721439     0.05400
H2970       H  0.85040096  0.54286178  0.50474426    -0.00400
H2971       H  0.82001597  0.49822243  0.51511300     0.01100
H2972       H  0.70884751  0.08030873  0.53462188     0.04700
H2973       H  0.74338462  0.10705144  0.55150713     0.06700
H2974       H  0.71223360  0.05803522  0.55485358     0.07600
C2975       C  0.98073728  0.21573894  0.53572831    -0.22100
C2976       C  0.98670844  0.24640095  0.52521869     0.09900
C2977       C  0.95638909  0.25501154  0.52265512     0.10300
C2978       C  0.92129183  0.23367469  0.53139999    -0.17000
C2979       C  0.91543217  0.20321695  0.54213452    -0.27400
C2980       C  0.94530054  0.19355490  0.54391340     0.18600
C2981       C  0.52283129  0.26514136  0.51498256     0.12600
C2982       C  0.96045030  0.28559772  0.51014901    -0.11800
H2983       H  0.89826642  0.24079199  0.52987065     0.12900
C2984       C  0.94052850  0.15934581  0.55365790    -0.22600
H2985       H  0.50346089  0.20811621  0.53697552     0.08500
C2986       C  0.55405822  0.29965374  0.52017362     0.04900
C2987       C  0.58733986  0.31581729  0.50963631    -0.19800
C2988       C  0.59102223  0.29726929  0.49466332    -0.12100
C2989       C  0.56073957  0.26073244  0.49071153     0.13600
C2990       C  0.52665907  0.24616167  0.50041630    -0.22500
C2991       C  0.55291252  0.31859631  0.53713972    -0.05600
H2992       H  0.61052148  0.34304048  0.51314369     0.15100
C2993       C  0.56340718  0.23468730  0.47733401    -0.15800
H2994       H  0.50322551  0.21877412  0.49704591     0.09400
H2995       H  0.96150235  0.16768820  0.56490460     0.07300
H2996       H  0.94598069  0.14127148  0.54442509     0.08500
H2997       H  0.91128096  0.14250557  0.55896163     0.07500
H2998       H  0.96674750  0.27956716  0.49656030     0.02400
H2999       H  0.98420570  0.31282695  0.51460620     0.02900
H3000       H  0.93364972  0.28804247  0.50943478     0.06400
H3001       H  0.58012855  0.34497022  0.53940646     0.05400
H3002       H  0.54879175  0.29984529  0.54859756    -0.00400
H3003       H  0.52886277  0.32528896  0.53673710     0.01100
H3004       H  0.55784594  0.20832670  0.48404823     0.04700
H3005       H  0.59206218  0.24590855  0.47127749     0.06700
H3006       H  0.54128164  0.22798249  0.46670849     0.07600
C3007       C  0.83728096  0.66560287  0.54084618     0.45900
H3008       H  0.84145501  0.66846711  0.52632411    -0.03200
C3009       C  0.83013797  0.65888948  0.57520144     0.45900
H3010       H  0.82656588  0.65568464  0.58983852    -0.03200
C3011       C  0.87622386  0.68212985  0.55101272    -0.16900
C3012       C  0.81602153  0.68569913  0.54881144    -0.16600
C3013       C  0.81429026  0.62468649  0.54714681    -0.17000
C3014       C  0.87239297  0.67896083  0.56922203    -0.17000
C3015       C  0.81203435  0.68145964  0.56709545    -0.16500
C3016       C  0.81131784  0.62148463  0.56527041    -0.16900
C3017       C  0.66743954  0.83252474  0.45813501     0.45900
H3018       H  0.66588214  0.82897852  0.44346772    -0.03200
C3019       C  0.66886573  0.83899786  0.49256732     0.45900
H3020       H  0.66938242  0.84084472  0.50728960    -0.03200
C3021       C  0.68870744  0.81412991  0.46793757    -0.16900
C3022       C  0.68692477  0.87336390  0.46436809    -0.16600
C3023       C  0.62735545  0.81564737  0.46608567    -0.17000
C3024       C  0.68944718  0.81765051  0.48608406    -0.17000
C3025       C  0.68952432  0.87728286  0.48275346    -0.16500
C3026       C  0.62745142  0.81744687  0.48435930    -0.16900
O3027       O  0.59334626  0.74244215  0.70211304    -0.80500
O3028       O  0.68841188  0.87574498  0.64912491    -0.65200
O3029       O  0.65860151  0.80350880  0.68667542    -1.11800
C3030       C  0.61697892  0.88419895  0.71309881     1.06400
O3031       O  0.71644996  0.91930662  0.66924624    -0.78400
O3032       O  0.71017230  0.91354058  0.70452807    -0.66000
Ni3033     Ni  0.62601432  0.75179267  0.68155587     1.34900
C3034       C  0.71083545  0.88835432  0.71419975     0.85100
O3035       O  0.69589440  0.81385329  0.65392155    -0.78900
O3036       O  0.65563914  0.75425311  0.66077419    -0.89200
C3037       C  0.70891198  0.90999986  0.65305864     0.84700
O3038       O  0.58916126  0.75826964  0.66753469    -0.67400
O3039       O  0.63886390  0.90933744  0.70221590    -0.86700
C3040       C  0.59468181  0.78195998  0.65544148     0.85500
C3041       C  0.68315838  0.77895557  0.65161839     1.07100
H3042       H  0.62559515  0.85592838  0.67553279     0.38900
O3043       O  0.64951715  0.86055182  0.68124477    -1.09400
O3044       O  0.68494823  0.85438642  0.71346452    -0.66000
Ni3045     Ni  0.63663337  0.82738664  0.70075937     1.26300
O3046       O  0.62627415  0.81188123  0.65354067    -0.66200
O3047       O  0.61439334  0.85194541  0.71405930    -0.78500
C3048       C  0.59872866  0.75809419  0.71726526     0.84900
O3049       O  0.62262556  0.79218470  0.71947489    -0.65700
Ni3050     Ni  0.67708980  0.91284254  0.68564115     1.27400
Ni3051     Ni  0.67323028  0.83818281  0.66727870     1.26100
H3052       H  0.68175254  0.80597558  0.69238781     0.39500
C3053       C  0.98656945  0.51205984  0.79283568     0.45900
H3054       H  0.98522178  0.51225711  0.77808753    -0.03200
C3055       C  0.98685851  0.50920440  0.82735838     0.45900
H3056       H  0.98541341  0.50470614  0.84173258    -0.03200
C3057       C  0.99580228  0.98523462  0.79740955    -0.16900
C3058       C  0.00715392  0.55088651  0.80165290    -0.16600
C3059       C  0.93640701  0.98922353  0.79987788    -0.17000
C3060       C  0.99780117  0.98305427  0.81550259    -0.17000
C3061       C  0.01015773  0.54989862  0.82020546    -0.16500
C3062       C  0.93847972  0.98780930  0.81800384    -0.16900
C3063       C  0.65079039  0.83874385  0.87531953     0.45900
H3064       H  0.65452420  0.84016099  0.86077972    -0.03200
C3065       C  0.64393946  0.83379092  0.90973122     0.45900
H3066       H  0.64097702  0.83141822  0.92443862    -0.03200
C3067       C  0.63593076  0.79885664  0.88247791    -0.16900
C3068       C  0.68900608  0.86247203  0.88547080    -0.16600
C3069       C  0.62273925  0.85211557  0.88255095    -0.17000
C3070       C  0.63215457  0.79661643  0.90052852    -0.17000
C3071       C  0.68505833  0.85981531  0.90366238    -0.16500
C3072       C  0.61927395  0.84893966  0.90086103    -0.16900
C3073       C  0.85852443  0.67400368  0.15791218     0.45900
H3074       H  0.85687151  0.66988125  0.17252530    -0.03200
C3075       C  0.86561509  0.68434940  0.12372780     0.45900
H3076       H  0.86930799  0.69004062  0.10927844    -0.03200
C3077       C  0.88291340  0.65842955  0.14930742    -0.16900
C3078       C  0.81930777  0.65449594  0.14769625    -0.16600
C3079       C  0.87730659  0.71543151  0.15238860    -0.17000
C3080       C  0.88717181  0.66422715  0.13129642    -0.17000
C3081       C  0.82341689  0.66038505  0.12943715    -0.16500
C3082       C  0.88045327  0.72052917  0.13439737    -0.16900
C3083       C  0.52367723  0.00076906  0.20816346     0.45900
H3084       H  0.52247643  0.99738732  0.19353587    -0.03200
C3085       C  0.52635609  0.00727621  0.24258977     0.45900
H3086       H  0.52718618  0.01083944  0.25718670    -0.03200
C3087       C  0.56737606  0.52360266  0.21533270    -0.16900
C3088       C  0.50540727  0.52380531  0.21479768    -0.16600
C3089       C  0.50452076  0.96284542  0.21798620    -0.17000
C3090       C  0.56854014  0.52655439  0.23354667    -0.17000
C3091       C  0.50686256  0.52653671  0.23310832    -0.16500
C3092       C  0.50573175  0.96654622  0.23627164    -0.16900
O3093       O  0.79115665  0.57329855  0.36359391    -0.80500
O3094       O  0.87926371  0.71978788  0.31811194    -0.65200
O3095       O  0.85295045  0.64126081  0.35168547    -1.11800
C3096       C  0.79969003  0.70661375  0.38342395     1.06400
O3097       O  0.89992913  0.76271401  0.33904719    -0.78400
O3098       O  0.89559647  0.74590019  0.37354150    -0.66000
Ni3099     Ni  0.82451470  0.59100912  0.34316014     1.34900
C3100       C  0.89815220  0.72023141  0.38200592     0.85100
O3101       O  0.89511650  0.66337791  0.32042919    -0.78900
O3102       O  0.85545322  0.60183672  0.32193654    -0.89200
C3103       C  0.89480063  0.75364036  0.32275808     0.84700
O3104       O  0.78586634  0.59785095  0.33091973    -0.67400
O3105       O  0.82123968  0.73499406  0.37408321    -0.86700
C3106       C  0.79038826  0.62333716  0.31999099     0.85500
C3107       C  0.88430629  0.63016909  0.31533630     1.07100
H3108       H  0.81335254  0.68956188  0.34341071     0.38900
O3109       O  0.83737562  0.69522778  0.34933736    -1.09400
O3110       O  0.87316930  0.68592151  0.38071785    -0.66000
Ni3111     Ni  0.82612184  0.65804246  0.36706907     1.26300
O3112       O  0.82168504  0.65384570  0.31926731    -0.66200
O3113       O  0.79890968  0.67523176  0.38200781    -0.78500
C3114       C  0.79335209  0.58491126  0.37947206     0.84900
O3115       O  0.81395790  0.61889225  0.38363001    -0.65700
Ni3116     Ni  0.85989887  0.74638710  0.35639731     1.27400
Ni3117     Ni  0.86638224  0.67998033  0.33449482     1.26100
H3118       H  0.87622400  0.64413046  0.35743878     0.39500
O3119       O  0.52540267  0.58969308  0.99979348    -0.80500
O3120       O  0.99666590  0.96897361  0.05228441    -0.65200
O3121       O  0.53858286  0.53386938  0.01201444    -1.11800
C3122       C  0.91038687  0.95760622  0.98880541     1.06400
O3123       O  0.97437334  0.92100946  0.03406745    -0.78400
O3124       O  0.97185459  0.92409320  0.99844672    -0.66000
Ni3125     Ni  0.56157753  0.58597241  0.01556399     1.34900
C3126       C  0.49638485  0.94688884  0.98770696     0.85100
O3127       O  0.56768726  0.52762044  0.04507800    -0.78900
O3128       O  0.59787612  0.58399457  0.03194778    -0.89200
C3129       C  0.98135152  0.93407754  0.04979555     0.84700
O3130       O  0.53218350  0.58864499  0.03472292    -0.67400
O3131       O  0.90759697  0.93304349  0.00012128    -0.86700
C3132       C  0.00835850  0.56433804  0.04508165     0.85500
C3133       C  0.59645801  0.56054895  0.04365180     1.07100
H3134       H  0.95218509  0.98841882  0.02558885     0.38900
O3135       O  0.96984010  0.98171301  0.01993000    -1.09400
O3136       O  0.50593078  0.98139727  0.98732626    -0.66000
Ni3137     Ni  0.99241739  0.51165131  0.99793848     1.26300
O3138       O  0.99995191  0.53023196  0.04462253    -0.66200
O3139       O  0.94065469  0.98892673  0.98683262    -0.78500
C3140       C  0.52396361  0.58149688  0.98354912     0.84900
O3141       O  0.51414490  0.54801520  0.97938125    -0.65700
Ni3142     Ni  0.94225844  0.92897427  0.01708798     1.27400
Ni3143     Ni  0.51756173  0.00361948  0.03313035     1.26100
H3144       H  0.55773981  0.52907266  0.00649226     0.39500
C3145       C  0.73213891  0.62664821  0.27946944    -0.22100
C3146       C  0.69649953  0.59550230  0.28274609     0.09900
C3147       C  0.69079160  0.57546708  0.29871239     0.10300
C3148       C  0.72151620  0.58619911  0.31082639    -0.17000
C3149       C  0.75815428  0.61647696  0.30736963    -0.27400
C3150       C  0.76311297  0.63766925  0.29157014     0.18600
C3151       C  0.66645996  0.58191835  0.26865635     0.12600
C3152       C  0.65238958  0.54222209  0.30277648    -0.11800
H3153       H  0.71693906  0.57018175  0.32293018     0.12900
C3154       C  0.80086107  0.67119088  0.28689105    -0.22600
H3155       H  0.73596164  0.64176032  0.26711542     0.08500
C3156       C  0.63823815  0.59358097  0.26753643     0.04900
C3157       C  0.60734898  0.57571905  0.25547246    -0.19800
C3158       C  0.60419056  0.54654560  0.24454077    -0.12100
C3159       C  0.63347797  0.53587615  0.24532892     0.13600
C3160       C  0.66446403  0.55416402  0.25719962    -0.22500
C3161       C  0.64046503  0.62432656  0.27927515    -0.05600
H3162       H  0.58511084  0.58406020  0.25479156     0.15100
C3163       C  0.63231850  0.50407902  0.23482751    -0.15800
H3164       H  0.68632568  0.54534833  0.25820408     0.09400
H3165       H  0.79912519  0.68355924  0.27394771     0.07300
H3166       H  0.82383784  0.66303840  0.28580061     0.08500
H3167       H  0.80881635  0.69317176  0.29717593     0.07500
H3168       H  0.64491779  0.01557527  0.29551161     0.02400
H3169       H  0.62965868  0.55082099  0.30297964     0.02900
H3170       H  0.65467926  0.02787059  0.31864479     0.06400
H3171       H  0.61604465  0.63005011  0.27669968     0.05400
H3172       H  0.66773915  0.65032604  0.27674807    -0.00400
H3173       H  0.63972996  0.61643157  0.29346756     0.01100
H3174       H  0.65707101  0.51485219  0.22560305     0.04700
H3175       H  0.60544298  0.48882865  0.22708649     0.06700
H3176       H  0.63215838  0.97964656  0.24309901     0.07600
C3177       C  0.91257478  0.84043368  0.29718818    -0.22100
C3178       C  0.93435404  0.83899438  0.28298901     0.09900
C3179       C  0.94216959  0.80885918  0.28145270     0.10300
C3180       C  0.92835631  0.78083046  0.29445722    -0.17000
C3181       C  0.90785136  0.78302006  0.30911194    -0.27400
C3182       C  0.89918928  0.81280311  0.31032091     0.18600
C3183       C  0.95168415  0.87122447  0.27088085     0.12600
C3184       C  0.96541310  0.80664821  0.26621515    -0.11800
H3185       H  0.93443946  0.75768694  0.29344836     0.12900
C3186       C  0.87508997  0.81518527  0.32516147    -0.22600
H3187       H  0.90677766  0.86376611  0.29816927     0.08500
C3188       C  0.93107992  0.87539015  0.25644145     0.04900
C3189       C  0.94905068  0.90729651  0.24575870    -0.19800
C3190       C  0.98746815  0.93471171  0.24897101    -0.12100
C3191       C  0.50784230  0.93038700  0.26373372     0.13600
C3192       C  0.98945933  0.89868273  0.27444767    -0.22500
C3193       C  0.89047121  0.84593288  0.25220452    -0.05600
H3194       H  0.93316587  0.91068764  0.23469659     0.15100
C3195       C  0.54944785  0.95737643  0.26793290    -0.15800
H3196       H  0.50479111  0.89498939  0.28569136     0.09400
H3197       H  0.84691844  0.78925460  0.32553448     0.07300
H3198       H  0.86928593  0.83905764  0.32334288     0.08500
H3199       H  0.89033748  0.81912872  0.33810822     0.07500
H3200       H  0.99470783  0.83114932  0.26650428     0.02400
H3201       H  0.95098398  0.80635604  0.25340394     0.02900
H3202       H  0.96853758  0.78105194  0.26690869     0.06400
H3203       H  0.87867341  0.85330884  0.24027841     0.05400
H3204       H  0.87151292  0.84256122  0.26361867    -0.00400
H3205       H  0.88995476  0.81896841  0.24955927     0.01100
H3206       H  0.55262258  0.98401176  0.27309059     0.04700
H3207       H  0.56708026  0.96224300  0.25596955     0.06700
H3208       H  0.56148433  0.94640403  0.27836284     0.07600
C3209       C  0.94587567  0.54529958  0.26624126    -0.22100
C3210       C  0.95795990  0.58315783  0.26342483     0.09900
C3211       C  0.98638550  0.60280868  0.25057373     0.10300
C3212       C  0.00256400  0.58406688  0.24108935    -0.17000
C3213       C  0.99014784  0.54592218  0.24386501    -0.27400
C3214       C  0.96094416  0.52628240  0.25645243     0.18600
C3215       C  0.94048722  0.60092576  0.27462182     0.12600
C3216       C  0.99878868  0.64307079  0.24654414    -0.11800
H3217       H  0.52441995  0.59891638  0.23127450     0.12900
C3218       C  0.94415070  0.48493791  0.25920725    -0.22600
H3219       H  0.92411827  0.53041094  0.27616088     0.08500
C3220       C  0.90076286  0.58998885  0.27329009     0.04900
C3221       C  0.88355861  0.60106541  0.28649348    -0.19800
C3222       C  0.90519077  0.62346537  0.30082301    -0.12100
C3223       C  0.94539527  0.63640156  0.30158751     0.13600
C3224       C  0.96252642  0.62470864  0.28852195    -0.22500
C3225       C  0.87646530  0.56671706  0.25792633    -0.05600
H3226       H  0.85284776  0.59172544  0.28579113     0.15100
C3227       C  0.96985148  0.66066494  0.31667720    -0.15800
H3228       H  0.99288596  0.63270756  0.28961243     0.09400
H3229       H  0.91882622  0.47373085  0.26810853     0.07300
H3230       H  0.96586251  0.47879464  0.26556999     0.08500
H3231       H  0.93441563  0.47027034  0.24624739     0.07500
H3232       H  0.01182342  0.66039668  0.25858490     0.02400
H3233       H  0.97339176  0.64595614  0.24217708     0.02900
H3234       H  0.02043743  0.65389987  0.23577741     0.06400
H3235       H  0.34605549  0.56123252  0.25879986     0.05400
H3236       H  0.87579537  0.53927478  0.25767476    -0.00400
H3237       H  0.38846916  0.58145067  0.24535575     0.01100
H3238       H  0.00041815  0.66708623  0.31552385     0.04700
H3239       H  0.95881565  0.64624684  0.32954982     0.06700
H3240       H  0.96911741  0.68749341  0.31663673     0.07600
C3241       C  0.89044272  0.80218947  0.10633611    -0.22100
C3242       C  0.93054600  0.82337933  0.10539159     0.09900
C3243       C  0.95419693  0.81335387  0.11563764     0.10300
C3244       C  0.93703997  0.78059130  0.12572056    -0.17000
C3245       C  0.89691979  0.75754573  0.12556900    -0.27400
C3246       C  0.87329831  0.76911783  0.11618117     0.18600
C3247       C  0.94672910  0.85263649  0.09171628     0.12600
C3248       C  0.99743765  0.83658296  0.11546030    -0.11800
H3249       H  0.95524943  0.77206937  0.13297163     0.12900
C3250       C  0.83018126  0.74601300  0.11576515    -0.22600
H3251       H  0.87260484  0.81035976  0.09841436     0.08500
C3252       C  0.95299379  0.84389129  0.07438647     0.04900
C3253       C  0.96590652  0.87157711  0.06131257    -0.19800
C3254       C  0.97195434  0.90776157  0.06498911    -0.12100
C3255       C  0.96564708  0.91634027  0.08254840     0.13600
C3256       C  0.95329607  0.88859263  0.09569880    -0.22500
C3257       C  0.94494749  0.80497325  0.06956965    -0.05600
H3258       H  0.97045097  0.86451613  0.04799237     0.15100
C3259       C  0.47078714  0.95403989  0.08758519    -0.15800
H3260       H  0.94788504  0.89464557  0.10907386     0.09400
H3261       H  0.82228566  0.72023377  0.10814266     0.07300
H3262       H  0.81618526  0.76078277  0.10906030     0.08500
H3263       H  0.81894029  0.73919158  0.12948078     0.07500
H3264       H  0.00583741  0.86522698  0.12016103     0.02400
H3265       H  0.00823412  0.83803587  0.10176468     0.02900
H3266       H  0.01160491  0.82473300  0.12427394     0.06400
H3267       H  0.95108166  0.80283538  0.05536853     0.05400
H3268       H  0.91413302  0.78495328  0.07191055    -0.00400
H3269       H  0.96319199  0.79684743  0.07782640     0.01100
H3270       H  0.45207391  0.96113713  0.07906437     0.04700
H3271       H  0.50141438  0.97510505  0.08605514     0.06700
H3272       H  0.46303143  0.95501238  0.10165456     0.07600
C3273       C  0.66354025  0.56952445  0.08302148    -0.22100
C3274       C  0.69315241  0.60605284  0.08055692     0.09900
C3275       C  0.69197955  0.62667909  0.06579753     0.10300
C3276       C  0.66070577  0.61052395  0.05391713    -0.17000
C3277       C  0.63004035  0.57397151  0.05633966    -0.27400
C3278       C  0.63186372  0.55312096  0.07118722     0.18600
C3279       C  0.72653977  0.62140641  0.09293704     0.12600
C3280       C  0.72383605  0.66581203  0.06258553    -0.11800
H3281       H  0.66033570  0.62709323  0.04270715     0.12900
C3282       C  0.60089141  0.51388798  0.07491815    -0.22600
H3283       H  0.66530550  0.55382733  0.09433234     0.08500
C3284       C  0.72757514  0.64117134  0.10842515     0.04900
C3285       C  0.76015407  0.65488962  0.11966205    -0.19800
C3286       C  0.79110188  0.64801252  0.11611417    -0.12100
C3287       C  0.78978300  0.62820479  0.10034597     0.13600
C3288       C  0.75767499  0.61564758  0.08894887    -0.22500
C3289       C  0.69400682  0.64706580  0.11322780    -0.05600
H3290       H  0.76110133  0.67029834  0.13152511     0.15100
C3291       C  0.81978872  0.61677352  0.09600769    -0.15800
H3292       H  0.75626047  0.60026569  0.07698823     0.09400
H3293       H  0.56535522  0.02075720  0.08011046     0.07300
H3294       H  0.59742658  0.00940148  0.09241534     0.08500
H3295       H  0.59001959  0.99873365  0.06913839     0.07500
H3296       H  0.75161411  0.66559964  0.06092532     0.02400
H3297       H  0.72637634  0.68390260  0.07405564     0.02900
H3298       H  0.71837409  0.67820278  0.05042975     0.06400
H3299       H  0.69935523  0.66281172  0.12588443     0.05400
H3300       H  0.66780138  0.61964663  0.11484779    -0.00400
H3301       H  0.68870548  0.66297057  0.10255400     0.01100
H3302       H  0.81137942  0.59804377  0.08423831     0.04700
H3303       H  0.82291172  0.60108531  0.10732121     0.06700
H3304       H  0.84771652  0.64110464  0.09276066     0.07600
C3305       C  0.98309417  0.59263744  0.08875069    -0.22100
C3306       C  0.95708560  0.60474725  0.08294619     0.09900
C3307       C  0.94762278  0.60314742  0.06468936     0.10300
C3308       C  0.96432819  0.58920091  0.05258127    -0.17000
C3309       C  0.99006403  0.57678607  0.05839763    -0.27400
C3310       C  0.00002927  0.57894652  0.07661460     0.18600
C3311       C  0.94039401  0.61950164  0.09615934     0.12600
C3312       C  0.91990546  0.61611972  0.05803780    -0.11800
H3313       H  0.95742942  0.58807364  0.03851746     0.12900
C3314       C  0.02961843  0.56822745  0.08309721    -0.22600
H3315       H  0.99051638  0.59442587  0.10277260     0.08500
C3316       C  0.90781227  0.59556591  0.10608175     0.04900
C3317       C  0.89200514  0.61095646  0.11786063    -0.19800
C3318       C  0.90745055  0.64966854  0.11974865    -0.12100
C3319       C  0.94070195  0.67352024  0.11006370     0.13600
C3320       C  0.95689079  0.65814419  0.09842775    -0.22500
C3321       C  0.88915101  0.55387330  0.10387261    -0.05600
H3322       H  0.86638604  0.59260517  0.12501695     0.15100
C3323       C  0.95952043  0.71507730  0.11209760    -0.15800
H3324       H  0.98216298  0.67630211  0.09082182     0.09400
H3325       H  0.00775718  0.03345800  0.07980864     0.07300
H3326       H  0.03438192  0.57202236  0.09770343     0.08500
H3327       H  0.05755967  0.58581243  0.07647467     0.07500
H3328       H  0.93129687  0.64610458  0.06123094     0.02400
H3329       H  0.89152108  0.59970578  0.06448756     0.02900
H3330       H  0.91546788  0.61265887  0.04340483     0.06400
H3331       H  0.86360756  0.53923367  0.11252450     0.05400
H3332       H  0.91010950  0.54401400  0.10742980    -0.00400
H3333       H  0.87956711  0.54623811  0.08984478     0.01100
H3334       H  0.98644658  0.72943191  0.10430757     0.04700
H3335       H  0.96696237  0.72254125  0.12631776     0.06700
H3336       H  0.93959454  0.72509736  0.10716704     0.07600
C3337       C  0.98498111  0.58206600  0.18030306    -0.22100
C3338       C  0.95073453  0.57931805  0.18690951     0.09900
C3339       C  0.93285963  0.55542850  0.20146256     0.10300
C3340       C  0.94923315  0.53439775  0.20862860    -0.17000
C3341       C  0.98563230  0.53999343  0.20331224    -0.27400
C3342       C  0.50362232  0.56433241  0.18886804     0.18600
C3343       C  0.93362877  0.60074450  0.17802886     0.12600
C3344       C  0.89812057  0.55387548  0.21035682    -0.11800
H3345       H  0.93210126  0.01275543  0.21955172     0.12900
C3346       C  0.54376498  0.57475872  0.18308474    -0.22600
H3347       H  0.49800059  0.59957362  0.16890562     0.08500
C3348       C  0.95344041  0.64017975  0.17663375     0.04900
C3349       C  0.93630216  0.65821248  0.16702823    -0.19800
C3350       C  0.89911515  0.63802582  0.15972322    -0.12100
C3351       C  0.87820253  0.59905930  0.16256626     0.13600
C3352       C  0.89646836  0.58085895  0.17075081    -0.22500
C3353       C  0.99181493  0.66343202  0.18575826    -0.05600
H3354       H  0.95173789  0.68823773  0.16539210     0.15100
C3355       C  0.83641037  0.57567027  0.15760576    -0.15800
H3356       H  0.88123449  0.55069529  0.17162432     0.09400
H3357       H  0.55394793  0.59622178  0.17244776     0.07300
H3358       H  0.54533788  0.55038343  0.17771089     0.08500
H3359       H  0.56341069  0.58693201  0.19458919     0.07500
H3360       H  0.87253230  0.54134849  0.20143923     0.02400
H3361       H  0.90438782  0.58251046  0.21411337     0.02900
H3362       H  0.88476443  0.03042565  0.22158044     0.06400
H3363       H  0.00161374  0.69372964  0.18432053     0.05400
H3364       H  0.01427848  0.65798545  0.17995791    -0.00400
H3365       H  0.98931705  0.65683018  0.20018635     0.01100
H3366       H  0.81942041  0.56317374  0.16978846     0.04700
H3367       H  0.83264783  0.55282915  0.14848544     0.06700
H3368       H  0.82472372  0.59223427  0.15108007     0.07600
C3369       C  0.71402319  0.58615334  0.15947881    -0.22100
C3370       C  0.71093390  0.59912495  0.17633905     0.09900
C3371       C  0.74506668  0.62688743  0.18457346     0.10300
C3372       C  0.77877103  0.64523437  0.17454411    -0.17000
C3373       C  0.78182215  0.63279029  0.15748207    -0.27400
C3374       C  0.74955409  0.59983979  0.15092800     0.18600
C3375       C  0.67258941  0.58076490  0.18534391     0.12600
C3376       C  0.74801803  0.63668560  0.20406391    -0.11800
H3377       H  0.80317649  0.66879220  0.18060290     0.12900
C3378       C  0.75129713  0.57583977  0.13619087    -0.22600
H3379       H  0.68887111  0.56342912  0.15329103     0.08500
C3380       C  0.65712753  0.60083446  0.19449768     0.04900
C3381       C  0.62412886  0.58127272  0.20484721    -0.19800
C3382       C  0.60239812  0.54225059  0.20409744    -0.12100
C3383       C  0.61508261  0.52234683  0.19310119     0.13600
C3384       C  0.65067192  0.54164214  0.18460728    -0.22500
C3385       C  0.67343314  0.64251483  0.19317164    -0.05600
H3386       H  0.61429649  0.59680221  0.21302560     0.15100
C3387       C  0.59316098  0.48074037  0.19050286    -0.15800
H3388       H  0.66149121  0.52563743  0.17746342     0.09400
H3389       H  0.73165313  0.57402275  0.12510596     0.07300
H3390       H  0.74174091  0.54724298  0.14132991     0.08500
H3391       H  0.78058944  0.58579299  0.13109353     0.07500
H3392       H  0.72168374  0.61831188  0.21154346     0.02400
H3393       H  0.75445451  0.66613693  0.20561607     0.02900
H3394       H  0.77189232  0.63345820  0.21028596     0.06400
H3395       H  0.68378811  0.65547883  0.20645958     0.05400
H3396       H  0.65044487  0.64889002  0.18850460    -0.00400
H3397       H  0.69726378  0.65546864  0.18354854     0.01100
H3398       H  0.58288878  0.97137364  0.17696535     0.04700
H3399       H  0.60887831  0.96546227  0.19553847     0.06700
H3400       H  0.61143890  0.46814622  0.19467340     0.07600
C3401       C  0.88994837  0.79787507  0.18070008    -0.22100
C3402       C  0.93038371  0.81832047  0.18189260     0.09900
C3403       C  0.95240505  0.80236423  0.17492597     0.10300
C3404       C  0.93345118  0.76639000  0.16753394    -0.17000
C3405       C  0.89339803  0.74754053  0.16497003    -0.27400
C3406       C  0.87131110  0.76358000  0.17160145     0.18600
C3407       C  0.94906213  0.85582069  0.19069531     0.12600
C3408       C  0.99580187  0.82403072  0.17389425    -0.11800
H3409       H  0.95027013  0.75399526  0.16242581     0.12900
C3410       C  0.82838099  0.74611761  0.16878187    -0.22600
H3411       H  0.87275140  0.80928671  0.18639377     0.08500
C3412       C  0.94414525  0.88616621  0.18451888     0.04900
C3413       C  0.96236495  0.92050607  0.19371840    -0.19800
C3414       C  0.98743381  0.92619568  0.20821003    -0.12100
C3415       C  0.49516823  0.89673456  0.21303109     0.13600
C3416       C  0.97378768  0.86155392  0.20522536    -0.22500
C3417       C  0.92097632  0.88304642  0.16792176    -0.05600
H3418       H  0.95707970  0.94309214  0.18951474     0.15100
C3419       C  0.52762507  0.90164259  0.22529238    -0.15800
H3420       H  0.97781623  0.83861527  0.21007965     0.09400
H3421       H  0.81653710  0.72012028  0.16086868     0.07300
H3422       H  0.82143846  0.76596767  0.16155508     0.08500
H3423       H  0.81381681  0.73960923  0.18185401     0.07500
H3424       H  0.50913573  0.82921258  0.18736635     0.02400
H3425       H  0.00452051  0.85099350  0.16703810     0.02900
H3426       H  0.00764351  0.80865559  0.16624961     0.06400
H3427       H  0.92256491  0.91016879  0.16436034     0.05400
H3428       H  0.89019067  0.86269942  0.16984061    -0.00400
H3429       H  0.93235796  0.87405409  0.15658313     0.01100
H3430       H  0.51597982  0.88363970  0.23718522     0.04700
H3431       H  0.54553926  0.93083728  0.22946159     0.06700
H3432       H  0.54694898  0.89341996  0.21823894     0.07600
C3433       C  0.77129538  0.93187999  0.93026518    -0.22100
C3434       C  0.78124959  0.90845575  0.94015672     0.09900
C3435       C  0.75862720  0.86940144  0.93849717     0.10300
C3436       C  0.72643350  0.85470300  0.92710484    -0.17000
C3437       C  0.71719680  0.87794342  0.91673036    -0.27400
C3438       C  0.73946729  0.91709788  0.91853625     0.18600
C3439       C  0.81491884  0.92498521  0.95247849     0.12600
C3440       C  0.76913520  0.84314816  0.94826270    -0.11800
H3441       H  0.70903632  0.82480897  0.92585700     0.12900
C3442       C  0.72996537  0.94391889  0.90869158    -0.22600
H3443       H  0.78833981  0.96185560  0.93178361     0.08500
C3444       C  0.85312751  0.94219670  0.94623456     0.04900
C3445       C  0.88380334  0.95416229  0.95852270    -0.19800
C3446       C  0.87709601  0.94868852  0.97687454    -0.12100
C3447       C  0.83879310  0.93286149  0.98313435     0.13600
C3448       C  0.80828057  0.92127391  0.97082326    -0.22500
C3449       C  0.86146667  0.94622534  0.92663270    -0.05600
H3450       H  0.91312178  0.96633354  0.95373317     0.15100
C3451       C  0.82881689  0.92829116  0.00260562    -0.15800
H3452       H  0.77889070  0.90862092  0.97556557     0.09400
H3453       H  0.75411779  0.96164603  0.89979016     0.07300
H3454       H  0.72571660  0.96202611  0.91839166     0.08500
H3455       H  0.70323957  0.92968573  0.90057204     0.07500
H3456       H  0.76767089  0.84628646  0.96283475     0.02400
H3457       H  0.79880789  0.84934687  0.94469667     0.02900
H3458       H  0.74925798  0.81356088  0.94479846     0.06400
H3459       H  0.89288284  0.95946549  0.92403028     0.05400
H3460       H  0.85016501  0.96375710  0.92038148    -0.00400
H3461       H  0.84749908  0.91823826  0.92034895     0.01100
H3462       H  0.81130655  0.94221983  0.00557213     0.04700
H3463       H  0.85437682  0.94088592  0.01153867     0.06700
H3464       H  0.81164226  0.89817117  0.00578175     0.07600
C3465       C  0.61071874  0.70698871  0.92446480    -0.22100
C3466       C  0.57297066  0.69552976  0.92997402     0.09900
C3467       C  0.55453678  0.71660091  0.92539534     0.10300
C3468       C  0.57461233  0.74913789  0.91544232    -0.17000
C3469       C  0.61269937  0.76117567  0.91029064    -0.27400
C3470       C  0.63110850  0.73993263  0.91481586     0.18600
C3471       C  0.55643660  0.66556472  0.94319287     0.12600
C3472       C  0.51421086  0.70528656  0.93142360    -0.11800
H3473       H  0.56085437  0.76572157  0.91197497     0.12900
C3474       C  0.67244955  0.75184626  0.91047239    -0.22600
H3475       H  0.62499198  0.69108799  0.92850986     0.08500
C3476       C  0.53687066  0.62763103  0.93844974     0.04900
C3477       C  0.52566799  0.60062059  0.95190882    -0.19800
C3478       C  0.53369071  0.61098661  0.96994392    -0.12100
C3479       C  0.55224662  0.64959184  0.97453747     0.13600
C3480       C  0.56332081  0.67611493  0.96102326    -0.22500
C3481       C  0.52822555  0.61591392  0.91924451    -0.05600
H3482       H  0.51108038  0.57135976  0.94828434     0.15100
C3483       C  0.06193025  0.66390705  0.99345421    -0.15800
H3484       H  0.57841006  0.70558530  0.96431514     0.09400
H3485       H  0.67382294  0.73020289  0.90209866     0.07300
H3486       H  0.68902610  0.75501161  0.92296862     0.08500
H3487       H  0.68654936  0.77875700  0.90332484     0.07500
H3488       H  0.51326369  0.70495217  0.94617706     0.02400
H3489       H  0.49410011  0.67703521  0.92626401     0.02900
H3490       H  0.50411532  0.72489267  0.92654836     0.06400
H3491       H  0.51245124  0.58508653  0.91781308     0.05400
H3492       H  0.55552271  0.62674035  0.91174444    -0.00400
H3493       H  0.51014820  0.62727114  0.91329793     0.01100
H3494       H  0.58124718  0.65446225  0.99973340     0.04700
H3495       H  0.03506793  0.65404172  0.00121103     0.06700
H3496       H  0.07703663  0.69486173  0.99409833     0.07600
C3497       C  0.54049535  0.86145679  0.92404132    -0.22100
C3498       C  0.56307933  0.89123437  0.93553014     0.09900
C3499       C  0.60356266  0.90731028  0.93515702     0.10300
C3500       C  0.62055760  0.89244799  0.92379059    -0.17000
C3501       C  0.59824311  0.86278970  0.91222890    -0.27400
C3502       C  0.55760895  0.84710527  0.91226684     0.18600
C3503       C  0.54419715  0.90445013  0.94846960     0.12600
C3504       C  0.62888026  0.94043599  0.94664367    -0.11800
H3505       H  0.65164045  0.90442051  0.92373361     0.12900
C3506       C  0.53153326  0.81484790  0.90050045    -0.22600
H3507       H  0.50935728  0.84910950  0.92440758     0.08500
C3508       C  0.53210056  0.93071521  0.94375117     0.04900
C3509       C  0.51721151  0.94451942  0.95688963    -0.19800
C3510       C  0.51367376  0.93227336  0.97461434    -0.12100
C3511       C  0.52570226  0.90572221  0.97927722     0.13600
C3512       C  0.54086161  0.89225051  0.96612582    -0.22500
C3513       C  0.53541191  0.94447890  0.92491731    -0.05600
H3514       H  0.00778762  0.96467099  0.95327270     0.15100
C3515       C  0.52405110  0.89247110  0.99816408    -0.15800
H3516       H  0.55071053  0.87241028  0.96964928     0.09400
H3517       H  0.51425897  0.82332245  0.89174026     0.07300
H3518       H  0.51166743  0.79104690  0.90886887     0.08500
H3519       H  0.54749440  0.80506030  0.89193141     0.07500
H3520       H  0.62283071  0.93305114  0.96090050     0.02400
H3521       H  0.62316997  0.96393946  0.94347780     0.02900
H3522       H  0.65997261  0.95001454  0.94442849     0.06400
H3523       H  0.02451660  0.96492718  0.92345540     0.05400
H3524       H  0.51837088  0.92065499  0.91584484    -0.00400
H3525       H  0.56608880  0.95834101  0.92092032     0.01100
H3526       H  0.49367073  0.87643867  0.00248361     0.04700
H3527       H  0.54006835  0.91675144  0.00713429     0.06700
H3528       H  0.53718099  0.87384649  0.99953509     0.07600
C3529       C  0.57097862  0.87699776  0.84550943    -0.22100
C3530       C  0.57236148  0.90941307  0.85251634     0.09900
C3531       C  0.58894963  0.92185861  0.86952963     0.10300
C3532       C  0.60868144  0.90505497  0.87778113    -0.17000
C3533       C  0.60601371  0.87156943  0.87135099    -0.27400
C3534       C  0.58581406  0.85687330  0.85508412     0.18600
C3535       C  0.55398483  0.92828466  0.84242491     0.12600
C3536       C  0.58225627  0.94973757  0.87998029    -0.11800
H3537       H  0.62475842  0.91739402  0.88986717     0.12900
C3538       C  0.57675267  0.81888554  0.84830222    -0.22600
H3539       H  0.55667146  0.86651850  0.83279419     0.08500
C3540       C  0.57501612  0.96599307  0.83712604     0.04900
C3541       C  0.55504558  0.98373771  0.82996707    -0.19800
C3542       C  0.51612207  0.96325916  0.82491581    -0.12100
C3543       C  0.49614749  0.92448607  0.82826903     0.13600
C3544       C  0.51476330  0.90789384  0.83777382    -0.22500
C3545       C  0.61858197  0.98636700  0.83716142    -0.05600
H3546       H  0.57046634  0.01340195  0.82741305     0.15100
C3547       C  0.95560521  0.89978447  0.82172078    -0.15800
H3548       H  0.49881493  0.87855424  0.84115005     0.09400
H3549       H  0.60312309  0.81790588  0.84443825     0.07300
H3550       H  0.55773730  0.81089629  0.83632002     0.08500
H3551       H  0.56118090  0.79793951  0.85869104     0.07500
H3552       H  0.55080096  0.93857816  0.88181978     0.02400
H3553       H  0.59368763  0.97701215  0.87326996     0.02900
H3554       H  0.59601616  0.95474199  0.89336965     0.06400
H3555       H  0.63008072  0.01518549  0.83194901     0.05400
H3556       H  0.62894528  0.97123695  0.82842754    -0.00400
H3557       H  0.63113890  0.98829945  0.85056950     0.01100
H3558       H  0.95476714  0.87674382  0.81360624     0.04700
H3559       H  0.94474383  0.91485395  0.81315932     0.06700
H3560       H  0.93618908  0.88777604  0.83324935     0.07600
C3561       C  0.55453954  0.62521996  0.85736516    -0.22100
C3562       C  0.57958620  0.65593812  0.84722714     0.09900
C3563       C  0.58880395  0.64946587  0.83001435     0.10300
C3564       C  0.56834472  0.61359047  0.82260634    -0.17000
C3565       C  0.53704911  0.58406143  0.83134252    -0.27400
C3566       C  0.03427989  0.58923044  0.84997329     0.18600
C3567       C  0.59456160  0.69413036  0.85491222     0.12600
C3568       C  0.61923274  0.68022417  0.81910771    -0.11800
H3569       H  0.57668373  0.60900061  0.80960629     0.12900
C3570       C  0.01343587  0.55798133  0.86295348    -0.22600
H3571       H  0.05089867  0.62976033  0.87124283     0.08500
C3572       C  0.56904479  0.70768476  0.85986308     0.04900
C3573       C  0.58364747  0.74227301  0.86847605    -0.19800
C3574       C  0.62330564  0.76513965  0.87113068    -0.12100
C3575       C  0.64912742  0.75288138  0.86504056     0.13600
C3576       C  0.63435271  0.71698927  0.85766808    -0.22500
C3577       C  0.52637207  0.68609365  0.85589782    -0.05600
H3578       H  0.56383130  0.75112027  0.87360725     0.15100
C3579       C  0.69225513  0.77656488  0.86623734    -0.15800
H3580       H  0.65413767  0.70670181  0.85430881     0.09400
H3581       H  0.01669581  0.56817401  0.87687845     0.07300
H3582       H  0.02601800  0.53882484  0.86268197     0.08500
H3583       H  0.98231245  0.54316226  0.86014359     0.07500
H3584       H  0.64796264  0.69040514  0.82545513     0.02400
H3585       H  0.61252701  0.70357518  0.81773574     0.02900
H3586       H  0.62110657  0.67027221  0.80563993     0.06400
H3587       H  0.51141832  0.70222647  0.85949028     0.05400
H3588       H  0.51290708  0.65977899  0.86359185    -0.00400
H3589       H  0.52157930  0.67970046  0.84145020     0.01100
H3590       H  0.70491614  0.76195786  0.87410241     0.04700
H3591       H  0.70109236  0.80393854  0.87247525     0.06700
H3592       H  0.70446301  0.78159303  0.85265690     0.07600
C3593       C  0.76808411  0.92447494  0.85334977    -0.22100
C3594       C  0.79834838  0.91796712  0.85886846     0.09900
C3595       C  0.79382710  0.89592220  0.87405456     0.10300
C3596       C  0.75751910  0.87707920  0.88193771    -0.17000
C3597       C  0.72672101  0.88288490  0.87627124    -0.27400
C3598       C  0.73267521  0.90814912  0.86217553     0.18600
C3599       C  0.83464981  0.93536279  0.84871400     0.12600
C3600       C  0.82765935  0.89431237  0.88273096    -0.11800
H3601       H  0.75338513  0.85797541  0.89273640     0.12900
C3602       C  0.70297994  0.91969550  0.85682591    -0.22600
H3603       H  0.77237194  0.94272207  0.84210829     0.08500
C3604       C  0.84674121  0.91379654  0.83864503     0.04900
C3605       C  0.88199849  0.93176382  0.82976206    -0.19800
C3606       C  0.90355943  0.97079651  0.82922523    -0.12100
C3607       C  0.88863782  0.99230337  0.83738903     0.13600
C3608       C  0.85537772  0.97435238  0.84771031    -0.22500
C3609       C  0.82091765  0.87251573  0.83570895    -0.05600
H3610       H  0.89140449  0.91523246  0.82223901     0.15100
C3611       C  0.91893424  0.53502588  0.84322329    -0.15800
H3612       H  0.84459634  0.99086467  0.85445478     0.09400
H3613       H  0.71487710  0.94325722  0.84725851     0.07300
H3614       H  0.69345231  0.92904198  0.86867747     0.08500
H3615       H  0.67787442  0.89656910  0.85017654     0.07500
H3616       H  0.84957049  0.92288508  0.88674937     0.02400
H3617       H  0.84137343  0.88307339  0.87364416     0.02900
H3618       H  0.81886679  0.87648807  0.89479878     0.06400
H3619       H  0.83440486  0.86051714  0.82679990     0.05400
H3620       H  0.79348648  0.86797514  0.82935680    -0.00400
H3621       H  0.81410999  0.85674245  0.84831707     0.05000
H3622       H  0.90032385  0.54686139  0.83850685     0.04700
H3623       H  0.94600877  0.54863772  0.83562237     0.06700
H3624       H  0.92541175  0.54209465  0.85752930     0.07600
C3625       C  0.85054466  0.97659916  0.77128113    -0.22100
C3626       C  0.83536304  0.93925925  0.76600977     0.09900
C3627       C  0.85276562  0.91820408  0.77232347     0.10300
C3628       C  0.88432591  0.93476396  0.78416527    -0.17000
C3629       C  0.90000360  0.97232705  0.78920535    -0.27400
C3630       C  0.88303893  0.99359879  0.78254702     0.18600
C3631       C  0.80299135  0.92385277  0.75289895     0.12600
C3632       C  0.83921290  0.87891012  0.76594910    -0.11800
H3633       H  0.89756331  0.91860867  0.78910841     0.12900
C3634       C  0.89884378  0.03437243  0.78667729    -0.22600
H3635       H  0.83755264  0.99291119  0.76615552     0.08500
C3636       C  0.76417933  0.90315441  0.75818880     0.04900
C3637       C  0.73464582  0.89069503  0.74520266    -0.19800
C3638       C  0.74305949  0.89943230  0.72714297    -0.12100
C3639       C  0.78198697  0.91989207  0.72187880     0.13600
C3640       C  0.81145269  0.93167732  0.73482466    -0.22500
C3641       C  0.75391700  0.89528826  0.77754532    -0.05600
H3642       H  0.70479663  0.87517344  0.74921839     0.15100
C3643       C  0.79261272  0.92870875  0.70259349    -0.15800
H3644       H  0.84132142  0.94754445  0.73087983     0.09400
H3645       H  0.87639235  0.03882986  0.79327827     0.07300
H3646       H  0.89796409  0.55124967  0.78650138     0.08500
H3647       H  0.92187883  0.54158856  0.80443074     0.07500
H3648       H  0.84196413  0.87880587  0.75127089     0.02400
H3649       H  0.80864327  0.86083972  0.76951872     0.02900
H3650       H  0.85653107  0.86673685  0.77193599     0.06400
H3651       H  0.72223181  0.87927438  0.77938997     0.05400
H3652       H  0.76493554  0.92196867  0.78495967    -0.00400
H3653       H  0.76690372  0.87880509  0.78334065     0.01100
H3654       H  0.78159871  0.94727311  0.69732092     0.04700
H3655       H  0.78008472  0.90249658  0.69471100     0.06700
H3656       H  0.82434351  0.94314363  0.70078376     0.07600
C3657       C  0.52266610  0.68150440  0.74571646    -0.22100
C3658       C  0.54404752  0.68545751  0.76131507     0.09900
C3659       C  0.58065282  0.71706161  0.76342695     0.10300
C3660       C  0.59653400  0.74212843  0.74925595    -0.17000
C3661       C  0.57714876  0.73555620  0.73280189    -0.27400
C3662       C  0.53875862  0.70610059  0.73136935     0.18600
C3663       C  0.53327641  0.65159605  0.77215928     0.12600
C3664       C  0.60424598  0.72268965  0.78007945    -0.11800
H3665       H  0.62551073  0.76524394  0.75058488     0.12900
C3666       C  0.51469635  0.70003437  0.71476107    -0.22600
H3667       H  0.49451862  0.65721729  0.74419588     0.08500
C3668       C  0.51099957  0.64267944  0.78768374     0.04900
C3669       C  0.00277604  0.60961617  0.79689533    -0.19800
C3670       C  0.51626284  0.58521372  0.79093025    -0.12100
C3671       C  0.53749081  0.59418096  0.77485427     0.13600
C3672       C  0.54580186  0.62716486  0.76594829    -0.22500
C3673       C  0.99534569  0.66750684  0.79422251    -0.05600
H3674       H  0.98581625  0.60275762  0.80889810     0.15100
C3675       C  0.55315164  0.57106154  0.76642495    -0.15800
H3676       H  0.56254398  0.63408276  0.75384049     0.09400
H3677       H  0.48454150  0.67767941  0.71660883     0.07300
H3678       H  0.52671775  0.69148111  0.70354926     0.08500
H3679       H  0.51386077  0.72609657  0.71129123     0.07500
H3680       H  0.61052815  0.69914927  0.78160892     0.02400
H3681       H  0.58810233  0.72405944  0.79176391     0.02900
H3682       H  0.63215463  0.74890344  0.77965341     0.06400
H3683       H  0.97811637  0.65623064  0.80646457     0.05400
H3684       H  0.97651770  0.67001813  0.78382780    -0.00400
H3685       H  0.51972464  0.69570029  0.79737797     0.01100
H3686       H  0.54060678  0.56246628  0.75285846     0.04700
H3687       H  0.54666893  0.54586994  0.77386330     0.06700
H3688       H  0.58497422  0.58779205  0.76539421     0.07600
C3689       C  0.56694186  0.89295634  0.75429796    -0.22100
C3690       C  0.55271210  0.91628559  0.74793210     0.09900
C3691       C  0.55804740  0.92775037  0.73001335     0.10300
C3692       C  0.57815921  0.91588415  0.71882221    -0.17000
C3693       C  0.59337489  0.89317757  0.72522025    -0.27400
C3694       C  0.58736609  0.88125410  0.74320099     0.18600
C3695       C  0.53725425  0.93255404  0.76085473     0.12600
C3696       C  0.54368713  0.95349870  0.72289453    -0.11800
H3697       H  0.58263691  0.92494142  0.70507208     0.12900
C3698       C  0.60417126  0.85809700  0.75112522    -0.22600
H3699       H  0.56321235  0.88502719  0.76821166     0.08500
C3700       C  0.49753644  0.91693248  0.76420739     0.04900
C3701       C  0.98492064  0.93513891  0.77608378    -0.19800
C3702       C  0.51120781  0.96756857  0.78505301    -0.12100
C3703       C  0.55122894  0.98250895  0.78198426     0.13600
C3704       C  0.56360271  0.96469905  0.76990611    -0.22500
C3705       C  0.96877116  0.88141003  0.75527090    -0.05600
H3706       H  0.95445669  0.92356147  0.77859861     0.15100
C3707       C  0.59238513  0.52809090  0.79047610    -0.15800
H3708       H  0.59414865  0.97633535  0.76728047     0.09400
H3709       H  0.59088157  0.83016435  0.74476141     0.07300
H3710       H  0.59875253  0.85373965  0.76562934     0.08500
H3711       H  0.63586371  0.87238318  0.74921348     0.07500
H3712       H  0.55734733  0.98017216  0.73041541     0.02400
H3713       H  0.51194269  0.94036405  0.72428372     0.02900
H3714       H  0.55057814  0.95994368  0.70860387     0.06400
H3715       H  0.93886212  0.87290691  0.75951926     0.05400
H3716       H  0.97548454  0.85871353  0.75883450    -0.00400
H3717       H  0.96999337  0.88487885  0.74061293     0.01100
H3718       H  0.61530186  0.52564895  0.79809478     0.04700
H3719       H  0.58010958  0.54190976  0.79891945     0.06700
H3720       H  0.60628021  0.54628370  0.77886666     0.07600
C3721       C  0.75313387  0.78531208  0.44239150    -0.22100
C3722       C  0.72605924  0.74968542  0.43667119     0.09900
C3723       C  0.68811545  0.73345032  0.44307870     0.10300
C3724       C  0.67726331  0.75475928  0.45391958    -0.17000
C3725       C  0.70358083  0.79179422  0.45842080    -0.27400
C3726       C  0.74253594  0.80664097  0.45315059     0.18600
C3727       C  0.73779914  0.73243110  0.42246182     0.12600
C3728       C  0.65915405  0.69410115  0.43818015    -0.11800
H3729       H  0.64792362  0.74274550  0.45856283     0.12900
C3730       C  0.77375257  0.84499135  0.45802509    -0.22600
H3731       H  0.78250473  0.79732618  0.43765554     0.08500
C3732       C  0.73946355  0.74426690  0.40468919     0.04900
C3733       C  0.75802977  0.73361552  0.39202507    -0.19800
C3734       C  0.77484741  0.71123503  0.39667581    -0.12100
C3735       C  0.77077194  0.69722994  0.41426031     0.13600
C3736       C  0.75242970  0.70827817  0.42699830    -0.22500
C3737       C  0.72266467  0.76913574  0.39923014    -0.05600
H3738       H  0.76054158  0.74383701  0.37851033     0.15100
C3739       C  0.78758913  0.67254075  0.41996450    -0.15800
H3740       H  0.75100820  0.69944495  0.44071171     0.09400
H3741       H  0.78761008  0.86093222  0.44581659     0.07300
H3742       H  0.79613010  0.84283278  0.46622873     0.08500
H3743       H  0.76240894  0.86069255  0.46544082     0.07500
H3744       H  0.66971594  0.67473148  0.44284842     0.02400
H3745       H  0.65501890  0.69158548  0.42352091     0.02900
H3746       H  0.63075303  0.68559725  0.44436219     0.06400
H3747       H  0.72591736  0.77531746  0.38476019     0.05400
H3748       H  0.73744209  0.79604381  0.40651843    -0.00400
H3749       H  0.69144210  0.75520793  0.40230742     0.01100
H3750       H  0.81911163  0.68685948  0.41754957     0.04700
H3751       H  0.77352582  0.64592341  0.41241113     0.06700
H3752       H  0.78304598  0.66558952  0.43433791     0.07600
C3753       C  0.00081454  0.76665810  0.40049914    -0.22100
C3754       C  0.49459665  0.75472357  0.41826294     0.09900
C3755       C  0.95688217  0.73009903  0.42388238     0.10300
C3756       C  0.92595831  0.71824745  0.41165857    -0.17000
C3757       C  0.93191882  0.73120306  0.39403211    -0.27400
C3758       C  0.96995476  0.75540360  0.38833792     0.18600
C3759       C  0.52811942  0.76937558  0.43075872     0.12600
C3760       C  0.94930149  0.71652235  0.44281619    -0.11800
H3761       H  0.89687386  0.69968218  0.41600874     0.12900
C3762       C  0.97832535  0.76891546  0.36937754    -0.22600
H3763       H  0.52986940  0.78543168  0.39627943     0.08500
C3764       C  0.55500375  0.75591833  0.43065364     0.04900
C3765       C  0.58717593  0.77196243  0.44213662    -0.19800
C3766       C  0.59256375  0.80032855  0.45419251    -0.12100
C3767       C  0.56621077  0.81462572  0.45385435     0.13600
C3768       C  0.53408766  0.79859409  0.44230579    -0.22500
C3769       C  0.54944556  0.72427082  0.41863332    -0.05600
H3770       H  0.60786405  0.76171071  0.44198060     0.15100
C3771       C  0.57199860  0.84795127  0.46466208    -0.15800
H3772       H  0.01407003  0.80964453  0.44192056     0.09400
H3773       H  0.96654866  0.74471249  0.36014147     0.07300
H3774       H  0.00978181  0.78557964  0.36702115     0.08500
H3775       H  0.96520666  0.78698564  0.36625154     0.07500
H3776       H  0.95827983  0.74054168  0.45200711     0.02400
H3777       H  0.46582151  0.70159181  0.44609508     0.02900
H3778       H  0.91825245  0.69708590  0.44500253     0.06400
H3779       H  0.57269149  0.71659156  0.42053942     0.05400
H3780       H  0.54957249  0.73235721  0.40451437    -0.00400
H3781       H  0.52147622  0.69933341  0.42154519     0.01100
H3782       H  0.57266431  0.86981503  0.45561478     0.04700
H3783       H  0.59935123  0.86075216  0.47237744     0.06700
H3784       H  0.54772200  0.83956656  0.47402791     0.07600
C3785       C  0.71595733  0.00311954  0.40305281    -0.22100
C3786       C  0.73430778  0.00275985  0.41903862     0.09900
C3787       C  0.77219235  0.53247168  0.42292911     0.10300
C3788       C  0.78936549  0.56046776  0.41005425    -0.17000
C3789       C  0.77138762  0.55761497  0.39347385    -0.27400
C3790       C  0.73372660  0.52777533  0.39036581     0.18600
C3791       C  0.71759355  0.96817187  0.42974982     0.12600
C3792       C  0.79375809  0.53476348  0.43995877    -0.11800
H3793       H  0.81793785  0.58353637  0.41254013     0.12900
C3794       C  0.71158478  0.52471094  0.37340769    -0.22600
H3795       H  0.68731420  0.98047920  0.40021401     0.08500
C3796       C  0.69402690  0.96252100  0.44459173     0.04900
C3797       C  0.68316727  0.93056550  0.45516200    -0.19800
C3798       C  0.69613938  0.90460568  0.45144477    -0.12100
C3799       C  0.71798380  0.90969971  0.43576471     0.13600
C3800       C  0.72790367  0.94111632  0.42516822    -0.22500
C3801       C  0.68071728  0.99025860  0.44928889    -0.05600
H3802       H  0.66525513  0.92631014  0.46666175     0.15100
C3803       C  0.73422497  0.88487702  0.43006399    -0.15800
H3804       H  0.74568054  0.94556767  0.41356583     0.09400
H3805       H  0.71437400  0.05690044  0.37122165     0.07300
H3806       H  0.68164804  0.50126665  0.37393683     0.08500
H3807       H  0.72573349  0.51950118  0.36192844     0.07500
H3808       H  0.79940043  0.51066830  0.44087839     0.02400
H3809       H  0.77645261  0.53439982  0.45154742     0.02900
H3810       H  0.82190828  0.56070906  0.44065855     0.06400
H3811       H  0.66235315  0.98159735  0.46129610     0.05400
H3812       H  0.66364511  0.99280688  0.43804578    -0.00400
H3813       H  0.70598752  0.01792198  0.45197775     0.01100
H3814       H  0.72203181  0.87245827  0.41686476     0.04700
H3815       H  0.72826472  0.86227455  0.43938542     0.06700
H3816       H  0.76605863  0.90155771  0.42902770     0.07600
C3817       C  0.73296361  0.77030403  0.60960991    -0.22100
C3818       C  0.73075190  0.73534859  0.61234150     0.09900
C3819       C  0.71319856  0.71508187  0.62784425     0.10300
C3820       C  0.69793741  0.73005531  0.64019908    -0.17000
C3821       C  0.70048300  0.76540914  0.63777330    -0.27400
C3822       C  0.71817498  0.78571523  0.62209817     0.18600
C3823       C  0.75084102  0.72231500  0.59992609     0.12600
C3824       C  0.71157764  0.67806989  0.63162152    -0.11800
H3825       H  0.68464138  0.71422633  0.65208909     0.12900
C3826       C  0.72130151  0.82330571  0.61820388    -0.22600
H3827       H  0.74701912  0.78588793  0.59776357     0.08500
C3828       C  0.73167429  0.69730734  0.58578978     0.04900
C3829       C  0.75212386  0.68422691  0.57533631    -0.19800
C3830       C  0.79141477  0.69600295  0.57858605    -0.12100
C3831       C  0.81066567  0.72209083  0.59242919     0.13600
C3832       C  0.79009980  0.73472490  0.60289707    -0.22500
C3833       C  0.68990071  0.68484634  0.58165003    -0.05600
H3834       H  0.73747218  0.66477569  0.56457319     0.15100
C3835       C  0.85318446  0.73798717  0.59592192    -0.15800
H3836       H  0.80466698  0.75427050  0.61364596     0.09400
H3837       H  0.73425554  0.83404545  0.60499686     0.07300
H3838       H  0.74001526  0.84391954  0.62833292     0.08500
H3839       H  0.69225411  0.82124858  0.61818810     0.07500
H3840       H  0.74126259  0.68170876  0.63242165     0.02400
H3841       H  0.69537941  0.65788961  0.62087336     0.02900
H3842       H  0.69708852  0.66598327  0.64440355     0.06400
H3843       H  0.67941753  0.66558642  0.57006684     0.05400
H3844       H  0.68615370  0.70950748  0.57848244    -0.00400
H3845       H  0.67188074  0.67015562  0.59325714     0.01100
H3846       H  0.86392781  0.76057789  0.60604324     0.04700
H3847       H  0.86920683  0.74999196  0.58347598     0.06700
H3848       H  0.85930740  0.71598590  0.60113590     0.07600
C3849       C  0.93993027  0.69712540  0.60922532    -0.22100
C3850       C  0.96654273  0.73467705  0.60676467     0.09900
C3851       C  0.96241730  0.75409891  0.59210369     0.10300
C3852       C  0.93157893  0.73522990  0.58012897    -0.17000
C3853       C  0.90519080  0.69710137  0.58223624    -0.27400
C3854       C  0.90964360  0.67794173  0.59712572     0.18600
C3855       C  0.00030830  0.75156832  0.61889935     0.12600
C3856       C  0.99026392  0.79474396  0.58924431    -0.11800
H3857       H  0.92781016  0.75051540  0.56916503     0.12900
C3858       C  0.88456907  0.63701696  0.60045118    -0.22600
H3859       H  0.94370871  0.68223628  0.62040126     0.08500
C3860       C  0.99721850  0.76069377  0.63667586     0.04900
C3861       C  0.52902154  0.77165765  0.64829922    -0.19800
C3862       C  0.56344957  0.77342289  0.64246184    -0.12100
C3863       C  0.56664488  0.76488504  0.62453570     0.13600
C3864       C  0.53500484  0.75407723  0.61300906    -0.22500
C3865       C  0.96057856  0.75897699  0.64329681    -0.05600
H3866       H  0.52679921  0.77830060  0.66203840     0.15100
C3867       C  0.60212466  0.76504007  0.61725085    -0.15800
H3868       H  0.53688003  0.74624658  0.59943085     0.09400
H3869       H  0.86820299  0.63288817  0.61290941     0.07300
H3870       H  0.90274902  0.62314968  0.60175281     0.08500
H3871       H  0.86423507  0.62317760  0.58950127     0.07500
H3872       H  0.52003024  0.79825861  0.58728427     0.02400
H3873       H  0.99023462  0.81110559  0.60099729     0.02900
H3874       H  0.98243625  0.80589574  0.57730053     0.06400
H3875       H  0.96334233  0.76783844  0.65742569     0.05400
H3876       H  0.93646642  0.73004880  0.64224423    -0.00400
H3877       H  0.95353541  0.77775154  0.63518661     0.01100
H3878       H  0.59444923  0.73685269  0.61211118     0.04700
H3879       H  0.62533655  0.77250227  0.62727863     0.06700
H3880       H  0.61369041  0.78536609  0.60616451     0.07600
C3881       C  0.76493693  0.50459076  0.62757786    -0.22100
C3882       C  0.74460435  0.49434891  0.61142413     0.09900
C3883       C  0.71240239  0.95903207  0.60950565     0.10300
C3884       C  0.70274579  0.93144154  0.62264180    -0.17000
C3885       C  0.72273993  0.93933489  0.63905732    -0.27400
C3886       C  0.75386886  0.97578356  0.64206945     0.18600
C3887       C  0.75639349  0.52292657  0.59738805     0.12600
C3888       C  0.69098505  0.94949499  0.59196917    -0.11800
H3889       H  0.67908351  0.90373694  0.62014667     0.12900
C3890       C  0.77878186  0.98612512  0.65865935    -0.22600
H3891       H  0.78790376  0.53300516  0.62926271     0.08500
C3892       C  0.74179051  0.54835899  0.59651644     0.04900
C3893       C  0.75933111  0.57934427  0.58522754    -0.19800
C3894       C  0.79136884  0.58560561  0.57503168    -0.12100
C3895       C  0.80546011  0.55951256  0.57578937     0.13600
C3896       C  0.78717829  0.52815109  0.58667646    -0.22500
C3897       C  0.70862939  0.54343235  0.60792545    -0.05600
H3898       H  0.74879996  0.59946346  0.58476089     0.15100
C3899       C  0.84150151  0.56499025  0.56672461    -0.15800
H3900       H  0.79871021  0.50885449  0.58775204     0.09400
H3901       H  0.80439674  0.52082697  0.65703531     0.07300
H3902       H  0.79275518  0.47345983  0.66147452     0.08500
H3903       H  0.76190953  0.98572336  0.67042213     0.07500
H3904       H  0.71143224  0.95452980  0.58098364     0.02400
H3905       H  0.67694385  0.96716131  0.58991299     0.02900
H3906       H  0.66835770  0.91980040  0.59140246     0.06400
H3907       H  0.70087300  0.56592049  0.60562170     0.05400
H3908       H  0.71644753  0.54396864  0.62219472    -0.00400
H3909       H  0.68292750  0.51632953  0.60482271     0.01100
H3910       H  0.86244367  0.56528820  0.57679688     0.04700
H3911       H  0.85583795  0.59149934  0.55941006     0.06700
H3912       H  0.83431589  0.54153514  0.55741780     0.07600
C3913       C  0.76809229  0.72066383  0.51429998    -0.22100
C3914       C  0.77143177  0.75233613  0.52299712     0.09900
C3915       C  0.79149133  0.76328457  0.53935306     0.10300
C3916       C  0.80989540  0.74366340  0.54596318    -0.17000
C3917       C  0.80383248  0.70983662  0.53825568    -0.27400
C3918       C  0.78332421  0.69881531  0.52178475     0.18600
C3919       C  0.75110386  0.77160944  0.51524119     0.12600
C3920       C  0.79032038  0.79303837  0.55076604    -0.11800
H3921       H  0.82713698  0.75365251  0.55797944     0.12900
C3922       C  0.77584100  0.66383541  0.51204621    -0.22600
H3923       H  0.75230006  0.71235892  0.50177866     0.08500
C3924       C  0.77091568  0.80677848  0.50695738     0.04900
C3925       C  0.74966559  0.82297872  0.49952669    -0.19800
C3926       C  0.70930915  0.80313690  0.49827066    -0.12100
C3927       C  0.68960239  0.76831634  0.50699145     0.13600
C3928       C  0.71074995  0.75312685  0.51541452    -0.22500
C3929       C  0.81400392  0.82574758  0.50450210    -0.05600
H3930       H  0.76477244  0.85067098  0.49398224     0.15100
C3931       C  0.64651376  0.74631616  0.50773415    -0.15800
H3932       H  0.69560111  0.72618157  0.52187144     0.09400
H3933       H  0.75404807  0.65691641  0.50123290     0.07300
H3934       H  0.76461178  0.63999316  0.52125576     0.08500
H3935       H  0.80252917  0.66749979  0.50566729     0.07500
H3936       H  0.75989757  0.78476307  0.55393659     0.02400
H3937       H  0.80315086  0.82029142  0.54392985     0.02900
H3938       H  0.80616862  0.79677194  0.56355123     0.06400
H3939       H  0.82451264  0.85257230  0.49726946     0.05400
H3940       H  0.82168606  0.80735738  0.49663049    -0.00400
H3941       H  0.82951253  0.83179961  0.51741256     0.01100
H3942       H  0.63626139  0.71979314  0.50026243     0.04700
H3943       H  0.63283259  0.76200434  0.50217191     0.06700
H3944       H  0.63730494  0.73997106  0.52179255     0.07600
C3945       C  0.76002709  0.97987416  0.49454079    -0.22100
C3946       C  0.74701965  0.98398697  0.51122531     0.09900
C3947       C  0.71626171  0.95193177  0.51900777     0.10300
C3948       C  0.69719355  0.91857234  0.50910047    -0.17000
C3949       C  0.71104851  0.91416660  0.49259682    -0.27400
C3950       C  0.74568587  0.94485768  0.48636646     0.18600
C3951       C  0.76448036  0.51972250  0.51881870     0.12600
C3952       C  0.70383927  0.95101626  0.53798492    -0.11800
H3953       H  0.67202509  0.89551917  0.51476885     0.12900
C3954       C  0.77102015  0.94174192  0.47246128    -0.22600
H3955       H  0.78552932  0.49986373  0.48846154     0.08500
C3956       C  0.80517611  0.54254629  0.52058268     0.04900
C3957       C  0.82030980  0.57904720  0.52736658    -0.19800
C3958       C  0.79639501  0.59148467  0.53509314    -0.12100
C3959       C  0.75593653  0.56878630  0.53358318     0.13600
C3960       C  0.74084313  0.53464691  0.52444323    -0.22500
C3961       C  0.83372742  0.52884496  0.51679998    -0.05600
H3962       H  0.85131747  0.59634963  0.52846111     0.15100
C3963       C  0.72764307  0.57922901  0.54165722    -0.15800
H3964       H  0.71009132  0.51932845  0.52200698     0.09400
H3965       H  0.80044170  0.95158361  0.47808432     0.07300
H3966       H  0.77304483  0.95939543  0.46088436     0.08500
H3967       H  0.76081465  0.91291169  0.46805766     0.07500
H3968       H  0.67402913  0.94707449  0.53819512     0.02400
H3969       H  0.72317840  0.97642130  0.54562704     0.02900
H3970       H  0.70435313  0.92731184  0.54504894     0.06400
H3971       H  0.85421272  0.53565325  0.52816465     0.05400
H3972       H  0.85129254  0.04800018  0.50411963    -0.00400
H3973       H  0.82164735  0.00220493  0.51350941     0.01100
H3974       H  0.70841358  0.58042744  0.53107731     0.04700
H3975       H  0.74178141  0.60661373  0.54850176     0.06700
H3976       H  0.70974679  0.55775067  0.55152287     0.07600
C3977       C  0.98054714  0.71706779  0.53652825    -0.22100
C3978       C  0.98580502  0.74613220  0.52500454     0.09900
C3979       C  0.95446510  0.75272608  0.52127343     0.10300
C3980       C  0.91919330  0.73130981  0.52992957    -0.17000
C3981       C  0.91396507  0.70242129  0.54168316    -0.27400
C3982       C  0.94493279  0.69457529  0.54456726     0.18600
C3983       C  0.52258568  0.76534142  0.51513682     0.12600
C3984       C  0.95762095  0.78109543  0.50757983    -0.11800
H3985       H  0.89548409  0.73710596  0.52747507     0.12900
C3986       C  0.94137204  0.66194171  0.55534646    -0.22600
H3987       H  0.50420730  0.71104567  0.53877958     0.08500
C3988       C  0.55219989  0.80144377  0.51952380     0.04900
C3989       C  0.58581765  0.81790006  0.50915299    -0.19800
C3990       C  0.59159581  0.79816861  0.49527621    -0.12100
C3991       C  0.56330384  0.76030738  0.49237018     0.13600
C3992       C  0.52870561  0.74526609  0.50172844    -0.22500
C3993       C  0.54917994  0.82177334  0.53559445    -0.05600
H3994       H  0.60774319  0.84619305  0.51197852     0.15100
C3995       C  0.56907218  0.73352558  0.48067492    -0.15800
H3996       H  0.50676629  0.71677608  0.49906583     0.09400
H3997       H  0.96183029  0.67215987  0.56680740     0.07300
H3998       H  0.94841226  0.64381621  0.54690813     0.08500
H3999       H  0.91210262  0.64449969  0.56047217     0.07500
H4000       H  0.96498901  0.77382068  0.49449255     0.02400
H4001       H  0.98030518  0.80932890  0.51147422     0.02900
H4002       H  0.93011345  0.78203834  0.50599061     0.06400
H4003       H  0.57530945  0.84928863  0.53736938     0.05400
H4004       H  0.54595956  0.80490671  0.54770740    -0.00400
H4005       H  0.52391611  0.82653037  0.53437315     0.01100
H4006       H  0.56522774  0.70909432  0.48868866     0.04700
H4007       H  0.59822965  0.74568779  0.47500773     0.06700
H4008       H  0.54722694  0.72342430  0.46976977     0.07600
loop_ 
_geom_bond_atom_site_label_1 
_geom_bond_atom_site_label_2 
_geom_bond_distance 
_geom_bond_site_symmetry_2 
_ccdc_geom_bond_type 
C1            H2   1.103       .  S
C1            C7   1.546       .  S
C1            C6   1.552       .  S
C1            C5   1.543       .  S
C3            H4   1.111       .  S
C3            C9   1.536       .  S
C3            C8   1.537       .  S
C3           C10   1.536       .  S
C5            C8   1.373       .  D
C5          C975   1.488       .  S
C6            C9   1.388       .  D
C6          C911   1.514       .  S
C7           C10   1.372       .  D
C7          C952   1.494       .  S
C8          C847   1.498       .  S
C9          C824   1.494       .  S
C10         C888   1.489       .  S
C11          H12   1.110       .  S
C11          C17   1.524       .  S
C11          C16   1.532       .  S
C11          C15   1.547       .  S
C13          H14   1.110       .  S
C13          C19   1.559       .  S
C13          C18   1.532       .  S
C13          C20   1.560       .  S
C15          C18   1.372       .  D
C15         C719   1.487       .  S
C16          C19   1.385       .  D
C16         C792   1.495       .  S
C17          C20   1.378       .  D
C17         C760   1.498       .  S
C18         C920   1.493       .  S
C19         C943   1.515       .  S
C20         C984   1.500       .  S
O21         Ni27   1.936       .  S
O21          C42   1.272       .  A
O22         Ni45   1.911       .  S
O22          C31   1.268       .  A
O23         Ni27   1.911       .  S
O23         Ni45   1.911       .  S
O23         Ni39   1.908       .  S
O23          H46   0.966       .  S
C24          O41   1.272       .  A
C24          O33   1.276       .  A
C24         C687   1.474       .  S
O25         Ni44   1.919       .  S
O25          C31   1.267       .  A
O26         Ni44   1.910       .  S
O26          C28   1.269       .  A
Ni27         O30   1.933       .  S
Ni27         O32   1.906       .  S
C28          O38   1.277       .  A
C28         C632   1.494       .  S
O29         Ni45   1.917       .  S
O29          C35   1.276       .  A
O30          C35   1.279       .  A
C31         C879   1.487       .  S
O32          C34   1.266       .  A
O33         Ni44   1.920       .  S
C34          O40   1.270       .  A
C34         C856   1.475       .  S
C35         C815   1.490       .  S
H36          O37   0.966       .  S
O37         Ni45   1.915       .  S
O37         Ni39   1.901       .  S
O37         Ni44   1.905       .  S
O38         Ni39   1.943       .  S
Ni39         O43   1.903       .  S
Ni39         O41   1.910       .  S
O40         Ni45   1.932       .  S
C42          O43   1.268       .  A
C42         C655   1.484       .  S
C47          H48   1.111       .  S
C47          C52   1.544       .  S
C47        C1055   1.524   1_545  S
C47        C1053   1.540   1_545  S
C49          H50   1.099       .  S
C49          C55   1.554       .  S
C49        C1056   1.532   1_545  S
C49        C1058   1.552   1_545  S
C51        C1049   1.543       .  S
C51          C54   1.366       .  D
C51        C2700   1.480       .  S
C52          C55   1.396       .  D
C52        C2668   1.506       .  S
C53        C1049   1.521       .  S
C53          C56   1.369       .  D
C53         C623   1.496       .  S
C54        C1051   1.533       .  S
C54        C2540   1.494       .  S
C55        C2563   1.520       .  S
C56        C1051   1.559       .  S
C56         C600   1.493       .  S
C57          H58   1.104       .  S
C57          C63   1.555       .  S
C57          C62   1.545       .  S
C57          C61   1.541       .  S
C59          H60   1.112       .  S
C59          C65   1.534       .  S
C59          C64   1.531       .  S
C59          C66   1.532       .  S
C61          C64   1.364       .  D
C61         C568   1.491       .  S
C62          C65   1.379       .  D
C62         C591   1.496       .  S
C63          C66   1.384       .  D
C63         C527   1.502       .  S
C64         C463   1.477       .  S
C65         C431   1.491       .  S
C66         C495   1.493       .  S
C67          H68   1.109       .  S
C67          C73   1.549       .  S
C67          C72   1.557       .  S
C67          C71   1.534       .  S
C69          H70   1.105       .  S
C69          C75   1.542       .  S
C69          C74   1.545       .  S
C69          C76   1.529       .  S
C71          C74   1.373       .  D
C71         C344   1.494       .  S
C72          C75   1.390       .  D
C72         C367   1.510       .  S
C73          C76   1.366       .  D
C73         C399   1.486       .  S
C74         C312   1.486       .  S
C75         C280   1.505       .  S
C76         C239   1.495       .  S
C77          H78   1.107       .  S
C77          C83   1.550       .  S
C77        C1084   1.553       .  S
C77        C1083   1.544       .  S
C79          H80   1.105       .  S
C79          C86   1.536       .  S
C79        C1087   1.528       .  S
C79        C1086   1.534       .  S
C81        C1079   1.547       .  S
C81          C84   1.376       .  D
C81         C376   1.487       .  S
C82        C1079   1.552       .  S
C82          C85   1.379       .  D
C82        C2339   1.508   1_455  S
C83          C86   1.380       .  D
C83        C2412   1.505   1_455  S
C84        C1081   1.535       .  S
C84         C152   1.498       .  S
C85        C1081   1.531       .  S
C85        C2211   1.493   1_455  S
C86        C2188   1.496   1_455  S
O87         Ni93   1.938       .  S
O87         C108   1.273       .  A
O88        Ni111   1.908       .  S
O88          C97   1.266       .  A
O89         Ni93   1.917       .  S
O89        Ni111   1.914       .  S
O89        Ni105   1.914       .  S
O89         H112   0.966       .  S
C90         O107   1.271       .  A
C90          O99   1.275       .  A
C90         C728   1.483       .  S
O91        Ni110   1.921       .  S
O91          C97   1.268       .  A
O92        Ni110   1.906       .  S
O92          C94   1.268       .  A
Ni93         O96   1.938       .  S
Ni93         O98   1.906       .  S
C94         O104   1.275       .  A
C94         C751   1.487       .  S
O95        Ni111   1.910       .  S
O95         C101   1.271       .  A
O96         C101   1.277       .  A
C97         C175   1.478       .  S
O98         C100   1.268       .  A
O99        Ni110   1.917       .  S
C100        O106   1.271       .  A
C100        C143   1.493       .  S
C101        C216   1.476       .  S
H102        O103   0.966       .  S
O103       Ni111   1.913       .  S
O103       Ni105   1.906       .  S
O103       Ni110   1.910       .  S
O104       Ni105   1.938       .  S
Ni105       O109   1.900       .  S
Ni105       O107   1.914       .  S
O106       Ni111   1.934       .  S
C108        O109   1.266       .  A
C108        C783   1.480       .  S
O113       Ni119   1.918   1_556  S
O113        C134   1.266       .  A
O114      Ni2141   1.910       .  S
O114        C123   1.269       .  A
O115       Ni119   1.905       .  S
O115      Ni1139   1.907       .  S
O115      Ni2135   1.912   1_454  S
O115        H138   0.966       .  S
C116        O133   1.273       .  A
C116        O125   1.277       .  A
C116        C440   1.474       .  S
O117       Ni136   1.935       .  S
O117        C123   1.275       .  A
O118       Ni136   1.908   1_556  S
O118       C2124   1.269       .  A
Ni119       O122   1.917       .  S
Ni119       O124   1.899       .  S
C120        O130   1.276       .  A
C120       O2122   1.269   1_455  A
C120        C504   1.494       .  S
O121      Ni1139   1.927       .  S
O121        C127   1.279       .  A
O122        C127   1.277       .  A
C123        C248   1.495       .  S
O124       C2130   1.264       .  A
O125       Ni136   1.932   1_556  S
C126        O132   1.269       .  A
C126       O2128   1.264       .  A
C126        C303   1.471       .  S
C127        C271   1.498       .  S
H128        O129   0.966       .  S
O129       Ni136   1.900       .  S
O129      Ni2141   1.926       .  S
O129      Ni1133   1.909   1_554  S
O130      Ni3137   1.938   1_455  S
Ni131      O3136   1.930   1_545  S
Ni131      O2139   1.910       .  S
Ni131      O1135   1.917   1_545  S
Ni131      O2119   1.912   1_556  S
Ni131      O1131   1.902   1_546  S
O132      Ni3143   1.923       .  S
O133      Ni1133   1.913       .  S
C134        O135   1.267       .  A
C134        C472   1.483       .  S
O135      Ni2135   1.909   1_455  S
Ni137      O2118   1.909   1_455  S
Ni137      O1123   1.939       .  S
Ni137      O3138   1.925   1_455  S
Ni137      O1117   1.891       .  S
Ni137      O2133   1.926   1_455  S
C139        C140   1.400       .  A
C139        C144   1.407       .  A
C139        H149   1.084       .  S
C140        C145   1.484       .  S
C140        C141   1.410       .  A
C141        C142   1.404       .  A
C141        C146   1.508       .  S
C142        C143   1.409       .  A
C142        H147   1.084       .  S
C143        C144   1.423       .  A
C144        C148   1.509       .  S
C145        C150   1.410       .  A
C145        C154   1.397       .  A
C146        H163   1.109       .  S
C146       H1164   1.110       .  S
C146       H1166   1.111       .  S
C148        H159   1.111       .  S
C148        H160   1.111       .  S
C148        H161   1.110       .  S
C150        C151   1.407       .  A
C150        C155   1.506       .  S
C151        C152   1.407       .  A
C151        H156   1.084       .  S
C152        C153   1.422       .  A
C153        C154   1.402       .  A
C153        C157   1.503       .  S
C154        H158   1.085       .  S
C155        H165   1.111       .  S
C155        H166   1.110       .  S
C155        H167   1.109       .  S
C157        H168   1.110       .  S
C157        H169   1.099   1_545  S
C157       H1172   1.111   1_545  S
H162       C1148   1.110       .  S
H164       C1148   1.111       .  S
H170       C1159   1.110       .  S
C171        C172   1.399       .  A
C171        C176   1.402       .  A
C171        H181   1.084       .  S
C172        C177   1.477       .  S
C172        C173   1.410       .  A
C173        C174   1.405       .  A
C173        C178   1.506       .  S
C174        C175   1.405       .  A
C174        H179   1.084       .  S
C175        C176   1.418       .  A
C176        C180   1.509       .  S
C177        C182   1.407       .  A
C177        C186   1.398       .  A
C178        H194   1.110       .  S
C178        H195   1.110       .  S
C178        H196   1.111       .  S
C180        H191   1.111       .  S
C180        H192   1.111       .  S
C180        H193   1.109       .  S
C182        C183   1.402       .  A
C182        C187   1.506       .  S
C183        C184   1.409       .  A
C183        H188   1.084       .  S
C184       C2090   1.496       .  S
C184       C2189   1.421       .  A
C185       C2188   1.421   1_455  A
C185       C2190   1.402   1_455  A
C185        C189   1.508       .  S
C186       C2189   1.402       .  A
C186       H2194   1.084       .  S
C187        H197   1.111       .  S
C187        H198   1.110       .  S
C187        H199   1.110       .  S
C189        H200   1.105       .  S
C189        H201   1.104       .  S
C189        H202   1.111       .  S
H190       C2190   1.084   1_455  S
C203        C204   1.399       .  A
C203        C208   1.400       .  A
C203        H213   1.084       .  S
C204        C209   1.485       .  S
C204        C205   1.411       .  A
C205        C206   1.409       .  A
C205        C210   1.504       .  S
C206        C207   1.407       .  A
C206       H2215   1.084       .  S
C207       C2089   1.493       .  S
C207        C208   1.415       .  A
C208        C212   1.505   1_545  S
C209        C214   1.412       .  A
C209        C218   1.404       .  A
C210        H226   1.110       .  S
C210        H227   1.111       .  S
C210        H228   1.111       .  S
H211       C2210   1.084       .  S
C212        H223   1.111       .  S
C212        H224   1.106       .  S
C212        H225   1.110       .  S
C214        C215   1.402       .  A
C214        C219   1.506       .  S
C215        C216   1.402       .  A
C215        H220   1.084       .  S
C216        C217   1.413       .  A
C217        C218   1.408       .  A
C217        C221   1.506       .  S
C218        H222   1.084       .  S
C219        H230   1.109       .  S
C219       H2233   1.111       .  S
C219       H2235   1.110       .  S
C221        H232   1.111       .  S
C221        H233   1.110       .  S
C221        H234   1.110       .  S
H229       C2223   1.111       .  S
H231       C2223   1.110       .  S
C235        C236   1.401       .  A
C235        C240   1.403       .  A
C235        H245   1.084       .  S
C236        C241   1.482       .  S
C236        C237   1.409       .  A
C237        C238   1.404       .  A
C237        C242   1.506       .  S
C238        C239   1.406       .  A
C238        H243   1.079       .  S
C239        C240   1.414       .  A
C240        C244   1.503       .  S
C241        C246   1.409       .  A
C241        C250   1.399       .  A
C242        H258   1.110       .  S
C242        H259   1.109       .  S
C242        H260   1.111       .  S
C244        H255   1.110       .  S
C244        H256   1.110       .  S
C244        H257   1.105       .  S
C246        C247   1.403       .  A
C246        C251   1.508       .  S
C247        C248   1.408       .  A
C247        H252   1.084       .  S
C248        C249   1.424       .  A
C249        C250   1.408       .  A
C249       C2257   1.507       .  S
C250        H254   1.084       .  S
C251        H261   1.111       .  S
C251        H262   1.110       .  S
C251        H263   1.110       .  S
C253        H264   1.110       .  S
C253        H265   1.108   1_655  S
C253        H266   1.111       .  S
C253       C2253   1.507       .  S
C267        C268   1.401       .  A
C267        C272   1.409       .  A
C267        H277   1.084       .  S
C268        C273   1.480       .  S
C268        C269   1.406       .  A
C269        C270   1.399       .  A
C269        C274   1.508       .  S
C270        C271   1.412       .  A
C270        H275   1.083       .  S
C271        C272   1.422       .  A
C272        C276   1.506       .  S
C273        C278   1.408       .  A
C273        C282   1.394       .  A
C274        H290   1.110       .  S
C274        H291   1.110       .  S
C274        H292   1.111       .  S
C276       H1289   1.108       .  S
C276       H1290   1.111       .  S
C276       H1291   1.110   1_545  S
C278        C279   1.406       .  A
C278        C283   1.505       .  S
C279        C280   1.411       .  A
C279        H284   1.083       .  S
C280        C281   1.425       .  A
C281        C282   1.400       .  A
C281        C285   1.506       .  S
C282        H286   1.085       .  S
C283        H293   1.111       .  S
C283        H294   1.110       .  S
C283        H295   1.110       .  S
C285        H296   1.111       .  S
C285        H297   1.102       .  S
C285        H298   1.104       .  S
H287       C1278   1.109       .  S
H288       C1278   1.111       .  S
H289       C1278   1.110       .  S
C299        C300   1.399       .  A
C299        C304   1.400       .  A
C299        H309   1.084       .  S
C300        C305   1.474       .  S
C300        C301   1.411       .  A
C301        C302   1.402       .  A
C301        C306   1.507       .  S
C302        C303   1.403       .  A
C302        H307   1.084       .  S
C303        C304   1.414       .  A
C304        C308   1.506       .  S
C305        C310   1.408       .  A
C305        C314   1.399       .  A
C306        H322   1.110       .  S
C306        H323   1.110       .  S
C306        H324   1.111       .  S
C308        H320   1.111       .  S
C308        H321   1.111       .  S
C308       H1321   1.105       .  S
C310        C311   1.399       .  A
C310        C315   1.506       .  S
C311        C312   1.402       .  A
C311        H316   1.077       .  S
C312        C313   1.412       .  A
C313        C314   1.402       .  A
C313        C317   1.499       .  S
C314        H318   1.084       .  S
C315        H325   1.111       .  S
C315        H326   1.110       .  S
C315        H327   1.110       .  S
C317        H328   1.111       .  S
C317        H329   1.110       .  S
C317        H330   1.106       .  S
H319       C1310   1.108       .  S
C331        C332   1.402       .  A
C331       C2340   1.407       .  A
C331       H2345   1.084       .  S
C332        C337   1.496       .  S
C332        C333   1.415       .  A
C333        C334   1.405       .  A
C333        C338   1.508       .  S
C334        C335   1.408       .  A
C334       H1341   1.083       .  S
C335       C2086   1.508       .  S
C335       C2340   1.420       .  A
C336       C2335   1.407   1_455  A
C336       C2339   1.420   1_455  A
C336        C340   1.502       .  S
C337        C342   1.419       .  A
C337        C346   1.400       .  A
C338        H354   1.107       .  S
C338        H355   1.110       .  S
C338       H1358   1.111       .  S
H339       C1336   1.083       .  S
C340        H351   1.111       .  S
C340        H352   1.105       .  S
C340        H353   1.103       .  S
H341       C2335   1.084       .  S
C342        C343   1.410       .  A
C342        C347   1.508       .  S
C343        C344   1.402       .  A
C343        H348   1.084       .  S
C344        C345   1.417       .  A
C345        C346   1.401       .  A
C345        C349   1.501       .  S
C346        H350   1.084       .  S
C347        H357   1.111       .  S
C347        H358   1.108       .  S
C347        H359   1.111       .  S
C349        H360   1.110       .  S
C349        H361   1.110       .  S
C349        H362   1.097       .  S
H356       C1340   1.111       .  S
C363        C364   1.404       .  A
C363        C368   1.402       .  A
C363        H373   1.084       .  S
C364        C369   1.498       .  S
C364        C365   1.417       .  A
C365        C366   1.403       .  A
C365        C370   1.509       .  S
C366        C367   1.408       .  A
C366        H371   1.081       .  S
C367        C368   1.425       .  A
C368        C372   1.507       .  S
C369        C374   1.418       .  A
C369        C378   1.407       .  A
C370        H386   1.107       .  S
C370        H387   1.110       .  S
C370        H388   1.111       .  S
C372        H383   1.110       .  S
C372        H384   1.111       .  S
C372        H385   1.101       .  S
C374        C375   1.401       .  A
C374        C379   1.507       .  S
C375        C376   1.402       .  A
C375        H380   1.085       .  S
C376        C377   1.415       .  A
C377        C378   1.402       .  A
C377        C381   1.506   1_545  S
C378        H382   1.084       .  S
C379        H389   1.110       .  S
C379        H390   1.111       .  S
C379        H391   1.108       .  S
C381        H394   1.100       .  S
C381       H1394   1.110       .  S
C381       H1395   1.110       .  S
H392       C1383   1.110       .  S
H393       C1383   1.099       .  S
C395        C396   1.406       .  A
C395        C400   1.406       .  A
C395        H405   1.084       .  S
C396        C401   1.497       .  S
C396        C397   1.418       .  A
C397        C398   1.405       .  A
C397        C402   1.509       .  S
C398        C399   1.401       .  A
C398        H403   1.084       .  S
C399        C400   1.413       .  A
C400        C404   1.505       .  S
C401        C406   1.419       .  A
C401        C410   1.400       .  A
C402        H419   1.111       .  S
C402        H420   1.111       .  S
C402       H2422   1.107       .  S
C404        H415   1.106       .  S
C404        H416   1.110       .  S
C404        H417   1.110       .  S
C406        C407   1.411       .  A
C406        C411   1.508       .  S
C407        C408   1.405       .  A
C407        H412   1.084       .  S
C408       C2087   1.505       .  S
C408       C2413   1.421       .  A
C409       C2412   1.421   1_455  A
C409       C2414   1.400   1_455  A
C409        C413   1.504       .  S
C410       C2413   1.400       .  A
C410        H414   1.084       .  S
C411        H421   1.111       .  S
C411        H422   1.107       .  S
C411        H423   1.111       .  S
C413        H424   1.110       .  S
C413        H425   1.100       .  S
C413        H426   1.111       .  S
H418       C2406   1.107   1_455  S
C427        C428   1.402       .  A
C427        C432   1.407       .  A
C427        H437   1.084       .  S
C428        C433   1.482       .  S
C428        C429   1.409       .  A
C429        C430   1.400       .  A
C429        C434   1.507       .  S
C430        C431   1.400       .  A
C430        H435   1.075       .  S
C431        C432   1.417       .  A
C432        C436   1.506       .  S
C433        C438   1.411       .  A
C433        C442   1.401       .  A
C434        H450   1.110       .  S
C434        H451   1.110       .  S
C434        H452   1.111       .  S
C436        H447   1.110       .  S
C436        H448   1.110       .  S
C436        H449   1.106       .  S
C438        C439   1.406       .  A
C438        C443   1.505       .  S
C439        C440   1.404       .  A
C439        H444   1.084       .  S
C440        C441   1.414       .  A
C441        C442   1.403       .  A
C441        C445   1.507       .  S
C442        H446   1.085       .  S
C443        H453   1.111       .  S
C443        H454   1.110       .  S
C443        H455   1.110       .  S
C445        H456   1.110       .  S
C445        H457   1.108   1_556  S
C445        H458   1.110   1_556  S
C459        C460   1.401       .  A
C459        C464   1.399       .  A
C459        H469   1.085       .  S
C460        C465   1.476       .  S
C460        C461   1.410       .  A
C461        C462   1.400       .  A
C461        C466   1.506       .  S
C462        C463   1.402       .  A
C462        H467   1.083       .  S
C463        C464   1.412       .  A
C464        C468   1.503       .  S
C465        C470   1.410       .  A
C465        C474   1.397       .  A
C466        H482   1.109   1_455  S
C466        H483   1.110   1_455  S
C466        H484   1.111   1_455  S
C468        H479   1.110       .  S
C468        H480   1.110       .  S
C468        H481   1.106       .  S
C470        C471   1.405       .  A
C470        C475   1.507       .  S
C471        C472   1.408       .  A
C471        H476   1.084       .  S
C472        C473   1.422       .  A
C473        C474   1.397       .  A
C473       C2481   1.511       .  S
C474        H478   1.085       .  S
C475        H485   1.111       .  S
C475        H486   1.109       .  S
C475        H487   1.111       .  S
C477        H489   1.110       .  S
C477        H490   1.111       .  S
C477       H2492   1.109       .  S
C477       C2477   1.511       .  S
H488       C2481   1.109       .  S
C491        C492   1.403       .  A
C491        C496   1.407       .  A
C491        H501   1.084       .  S
C492        C497   1.486       .  S
C492        C493   1.410       .  A
C493        C494   1.403       .  A
C493        C498   1.506       .  S
C494        C495   1.405       .  A
C494        H499   1.084       .  S
C495        C496   1.416       .  A
C496        C500   1.506       .  S
C497        C502   1.410       .  A
C497        C506   1.398       .  A
C498        H514   1.110       .  S
C498        H515   1.110       .  S
C498        H516   1.111       .  S
C500        H511   1.110       .  S
C500        H512   1.110       .  S
C500        H513   1.106       .  S
C502        C503   1.408       .  A
C502        C507   1.505       .  S
C503        C504   1.409       .  A
C503       H2512   1.084       .  S
C504        C505   1.423       .  A
C505        C506   1.404       .  A
C505        C509   1.509       .  S
C506        H510   1.084       .  S
C507        H518   1.110       .  S
C507        H519   1.110       .  S
C507       H2521   1.111       .  S
H508       C2507   1.084       .  S
C509        H520   1.109   1_455  S
C509        H521   1.110   1_556  S
C509        H522   1.111       .  S
H517       C2511   1.111       .  S
C523        C524   1.400       .  A
C523        C528   1.405       .  A
C523        H533   1.084       .  S
C524        C529   1.482       .  S
C524        C525   1.409       .  A
C525        C526   1.402       .  A
C525        C530   1.509       .  S
C526        C527   1.409       .  A
C526        H531   1.082       .  S
C527        C528   1.419       .  A
C528        C532   1.503       .  S
C529        C534   1.410       .  A
C529        C538   1.401       .  A
C530        H546   1.110       .  S
C530        H547   1.105       .  S
C530        H548   1.110       .  S
C532        H543   1.105       .  S
C532        H544   1.111       .  S
C532        H545   1.105       .  S
C534        C535   1.403       .  A
C534        C539   1.510       .  S
C535        C536   1.403       .  A
C535        H540   1.076       .  S
C536       C2058   1.494       .  S
C536        C537   1.415       .  A
C537        C538   1.403       .  A
C537       C2545   1.501   1_455  S
C538        H542   1.085       .  S
C539        H549   1.110       .  S
C539        H550   1.110       .  S
C539        H551   1.106       .  S
C541        H552   1.110       .  S
C541        H553   1.098       .  S
C541        H554   1.110       .  S
C541       C2541   1.501       .  S
C555        C556   1.401       .  A
C555       C2564   1.408       .  A
C555       H2569   1.085       .  S
C556        C561   1.495       .  S
C556        C557   1.411       .  A
C557        C558   1.404       .  A
C557        C562   1.505       .  S
C558        C559   1.411       .  A
C558        H563   1.082       .  S
C559       C2059   1.520       .  S
C559       C2564   1.427       .  A
C560       C2559   1.408       .  A
C560       C2563   1.427       .  A
C560        C564   1.504       .  S
C561        C566   1.416       .  A
C561        C570   1.405       .  A
C562        H578   1.107       .  S
C562        H579   1.109       .  S
C562        H580   1.110       .  S
C564        H575   1.111       .  S
C564        H576   1.109       .  S
C564        H577   1.097       .  S
H565       C2559   1.085       .  S
C566        C567   1.402       .  A
C566        C571   1.509       .  S
C567        C568   1.400       .  A
C567        H572   1.078       .  S
C568        C569   1.414       .  A
C569        C570   1.406       .  A
C569        C573   1.505       .  S
C570        H574   1.082       .  S
C571        H581   1.111       .  S
C571        H582   1.108       .  S
C571        H583   1.110       .  S
C573        H584   1.109       .  S
C573        H585   1.106       .  S
C573        H586   1.110       .  S
C587        C588   1.400       .  A
C587        C592   1.406       .  A
C587        H597   1.084       .  S
C588        C593   1.480       .  S
C588        C589   1.409       .  A
C589        C590   1.401       .  A
C589        C594   1.508       .  S
C590        C591   1.408       .  A
C590        H595   1.083       .  S
C591        C592   1.420       .  A
C592        C596   1.508       .  S
C593        C598   1.409       .  A
C593        C602   1.401       .  A
C594        H610   1.110       .  S
C594        H611   1.107       .  S
C594        H612   1.111       .  S
C596        H607   1.111       .  S
C596        H608   1.107       .  S
C596        H609   1.105       .  S
C598        C599   1.400       .  A
C598        C603   1.509       .  S
C599        C600   1.407       .  A
C599        H604   1.083       .  S
C600        C601   1.418       .  A
C601        C602   1.405       .  A
C601       C1607   1.505       .  S
C602        H606   1.085       .  S
C603        H613   1.111       .  S
C603        H614   1.110       .  S
C603        H615   1.107       .  S
C605        H616   1.110       .  S
C605        H617   1.106       .  S
C605        H618   1.110       .  S
C605       C1603   1.507   1_545  S
C619        C620   1.404       .  A
C619        C624   1.409       .  A
C619        H629   1.084       .  S
C620        C625   1.492       .  S
C620        C621   1.411       .  A
C621        C622   1.406       .  A
C621        C626   1.506       .  S
C622        C623   1.404       .  A
C622        H627   1.079       .  S
C623        C624   1.416       .  A
C624        C628   1.505       .  S
C625        C630   1.412       .  A
C625        C634   1.401       .  A
C626        H642   1.110       .  S
C626        H643   1.110       .  S
C626        H644   1.111       .  S
C628        H639   1.110       .  S
C628       H1642   1.110       .  S
C628       H1643   1.106       .  S
C630        C631   1.411       .  A
C630        C635   1.506       .  S
C631        C632   1.407       .  A
C631        H636   1.084       .  S
C632        C633   1.421       .  A
C633        C634   1.408       .  A
C633        C637   1.509       .  S
C634        H638   1.084       .  S
C635        H645   1.111       .  S
C635        H646   1.110       .  S
C635        H647   1.110       .  S
C637        H648   1.109       .  S
C637        H649   1.110       .  S
C637        H650   1.111       .  S
H640       C1630   1.110       .  S
H641       C1630   1.104       .  S
C651        C652   1.400       .  A
C651        C656   1.405       .  A
C651        H661   1.084   1_455  S
C652        C657   1.482       .  S
C652        C653   1.412       .  A
C653        C654   1.404       .  A
C653        C658   1.503       .  S
C654        C655   1.403       .  A
C654        H659   1.084       .  S
C655        C656   1.420       .  A
C656        C660   1.508       .  S
C657        C662   1.409       .  A
C657        C666   1.394       .  A
C658        H674   1.109       .  S
C658        H675   1.108       .  S
C658        H676   1.111       .  S
C660        H671   1.111   1_455  S
C660        H672   1.109       .  S
C660        H673   1.110       .  S
C662       C2667   1.410       .  A
C662       C2671   1.504       .  S
C663       C2666   1.410       .  A
C663       C2668   1.412       .  A
C663        H668   1.084       .  S
C664       C2056   1.506   1_455  S
C664        C665   1.423       .  A
C664       C2667   1.412       .  A
C665        C666   1.396       .  A
C665        C669   1.500       .  S
C666        H670   1.086       .  S
C667        H677   1.111       .  S
C667        H678   1.110       .  S
C667       H2683   1.109       .  S
C667       C2666   1.504       .  S
C669        H680   1.110       .  S
C669        H681   1.087       .  S
C669        H682   1.111       .  S
H679       C2671   1.109       .  S
C683        C684   1.399       .  A
C683        C688   1.402       .  A
C683        H693   1.084       .  S
C684        C689   1.471       .  S
C684        C685   1.409       .  A
C685        C686   1.400       .  A
C685        C690   1.508       .  S
C686        C687   1.404       .  A
C686        H691   1.084       .  S
C687        C688   1.417       .  A
C688        C692   1.509       .  S
C689        C694   1.407       .  A
C689        C698   1.397       .  A
C690        H706   1.110       .  S
C690        H707   1.110       .  S
C690        H708   1.111       .  S
C692        H703   1.110       .  S
C692        H704   1.111       .  S
C692        H705   1.111       .  S
C694       C2699   1.401   1_455  A
C694       C2703   1.505   1_455  S
C695       C2698   1.401       .  A
C695       C2700   1.402       .  A
C695        H700   1.082       .  S
C696       C2055   1.480       .  S
C696        C697   1.419       .  A
C696       C2699   1.402   1_455  A
C697        C698   1.397       .  A
C697       C1703   1.508       .  S
C698        H702   1.085       .  S
C699        H709   1.111       .  S
C699        H710   1.110       .  S
C699        H711   1.110       .  S
C699       C2698   1.505       .  S
C701        H712   1.110       .  S
C701        H713   1.107       .  S
C701        H714   1.110       .  S
C701       C1699   1.507   1_545  S
C715        C716   1.397       .  A
C715        C720   1.397       .  A
C715        H725   1.085       .  S
C716        C721   1.476       .  S
C716        C717   1.408       .  A
C717        C718   1.405       .  A
C717        C722   1.505       .  S
C718        C719   1.406       .  A
C718        H723   1.080       .  S
C719        C720   1.417       .  A
C720        C724   1.502       .  S
C721        C726   1.409       .  A
C721        C730   1.401       .  A
C722        H738   1.110       .  S
C722        H739   1.109       .  S
C722        H740   1.111       .  S
C724        H735   1.110       .  S
C724        H736   1.110       .  S
C724        H737   1.101       .  S
C726        C727   1.398       .  A
C726        C731   1.509       .  S
C727        C728   1.405       .  A
C727        H732   1.084       .  S
C728        C729   1.419       .  A
C729        C730   1.407       .  A
C729        C733   1.508       .  S
C730        H734   1.084       .  S
C731        H741   1.111       .  S
C731        H742   1.110       .  S
C731        H743   1.109       .  S
C733        H744   1.111       .  S
C733        H745   1.110       .  S
C733        H746   1.111       .  S
C747        C752   1.404       .  A
C747       C2752   1.400       .  A
C747       H2761   1.084       .  S
C748        C753   1.486   1_655  S
C748       C2751   1.400       .  A
C748       C2753   1.411       .  A
C749        C750   1.408       .  A
C749       C2752   1.411       .  A
C749        C754   1.506       .  S
C750        C751   1.407       .  A
C750        H755   1.084       .  S
C751        C752   1.420       .  A
C752        C756   1.509       .  S
C753        C758   1.409       .  A
C753        C762   1.403       .  A
C754        H770   1.110       .  S
C754        H772   1.111       .  S
C754       H2775   1.110       .  S
C756        H767   1.111       .  S
C756        H768   1.111       .  S
C756        H769   1.109       .  S
H757       C2751   1.084   1_455  S
C758        C759   1.401       .  A
C758        C763   1.507       .  S
C759        C760   1.406       .  A
C759        H764   1.080       .  S
C760        C761   1.419       .  A
C761        C762   1.408       .  A
C761        C765   1.507       .  S
C762       H2770   1.084       .  S
C763        H773   1.111       .  S
C763        H774   1.110       .  S
C763        H775   1.110       .  S
C765        H776   1.111       .  S
C765        H777   1.107       .  S
C765        H778   1.111       .  S
H766       C2766   1.084       .  S
H771       C2758   1.110       .  S
C779        C780   1.399       .  A
C779       C1786   1.403       .  A
C779        H789   1.084       .  S
C780        C785   1.476       .  S
C780       C1783   1.411       .  A
C781        C782   1.404       .  A
C781       C1782   1.413       .  A
C781        C786   1.506       .  S
C782        C783   1.402       .  A
C782        H787   1.084       .  S
C783        C784   1.418       .  A
C784       C1781   1.404       .  A
C784        C788   1.508       .  S
C785        C790   1.407       .  A
C785        C794   1.395       .  A
C786        H802   1.109       .  S
C786        H803   1.110       .  S
C786        H804   1.111       .  S
C788        H800   1.111       .  S
C788        H801   1.109       .  S
C788       H1801   1.111       .  S
C790        C791   1.405       .  A
C790        C795   1.504       .  S
C791        C792   1.409       .  A
C791        H796   1.084       .  S
C792        C793   1.422       .  A
C793        C794   1.396       .  A
C793        C797   1.503       .  S
C794        H798   1.085       .  S
C795        H805   1.111       .  S
C795        H806   1.110       .  S
C795        H807   1.110       .  S
C797        H808   1.110       .  S
C797        H809   1.093       .  S
C797        H810   1.111       .  S
H799       C1790   1.110       .  S
C811        C812   1.401       .  A
C811        C816   1.408       .  A
C811        H821   1.085       .  S
C812        C817   1.482       .  S
C812        C813   1.407       .  A
C813        C814   1.401       .  A
C813        C818   1.508       .  S
C814        C815   1.409       .  A
C814        H819   1.084       .  S
C815        C816   1.424       .  A
C816        C820   1.509       .  S
C817        C822   1.412       .  A
C817        C826   1.396       .  A
C818        H834   1.110       .  S
C818        H835   1.110       .  S
C818        H836   1.111       .  S
C820        H831   1.111       .  S
C820        H832   1.110       .  S
C820        H833   1.103       .  S
C822        C823   1.407       .  A
C822        C827   1.504       .  S
C823        C824   1.405       .  A
C823        H828   1.084       .  S
C824        C825   1.418       .  A
C825        C826   1.400       .  A
C825        C829   1.502       .  S
C826        H830   1.084       .  S
C827        H837   1.111       .  S
C827        H838   1.110       .  S
C827        H839   1.110       .  S
C829        H840   1.111       .  S
C829        H841   1.109       .  S
C829        H842   1.106       .  S
C843        C844   1.399       .  A
C843        C848   1.400       .  A
C843        H853   1.085       .  S
C844        C849   1.482       .  S
C844        C845   1.409       .  A
C845        C846   1.405       .  A
C845        C850   1.505       .  S
C846        C847   1.409       .  A
C846        H851   1.083       .  S
C847        C848   1.418       .  A
C848        C852   1.502       .  S
C849        C854   1.412       .  A
C849       C2862   1.400       .  A
C850        H867   1.110       .  S
C850        H868   1.111       .  S
C850       H2870   1.110       .  S
C852        H863   1.110       .  S
C852        H864   1.111       .  S
C852        H865   1.096       .  S
C854       C2859   1.406       .  A
C854        C859   1.506       .  S
C855        C856   1.404       .  A
C855       C2858   1.406       .  A
C855        H860   1.084       .  S
C856        C857   1.417       .  A
C857        C858   1.401       .  A
C857        C861   1.508       .  S
C858       C2853   1.400       .  A
C858        H862   1.085       .  S
C859        H869   1.111       .  S
C859        H870   1.110       .  S
C859        H871   1.110       .  S
C861        H872   1.111       .  S
C861        H873   1.104       .  S
C861        H874   1.110       .  S
H866       C2854   1.110   1_455  S
C875        C876   1.398   1_545  A
C875       C1882   1.401   1_545  A
C875        H885   1.085       .  S
C876        C881   1.478   1_565  S
C876       C1879   1.408       .  A
C877        C878   1.404       .  A
C877       C1878   1.406       .  A
C877        C882   1.506       .  S
C878        C879   1.411       .  A
C878        H883   1.084       .  S
C879        C880   1.421       .  A
C880       C1877   1.401       .  A
C880        C884   1.509       .  S
C881        C886   1.410       .  A
C881        C890   1.396       .  A
C882        H898   1.110       .  S
C882        H899   1.110       .  S
C882        H900   1.111       .  S
C884        H897   1.109       .  S
C884       H1897   1.111       .  S
C884       H1898   1.110       .  S
C886        C887   1.405       .  A
C886        C891   1.505       .  S
C887        C888   1.405       .  A
C887        H892   1.084       .  S
C888        C889   1.420       .  A
C889        C890   1.398       .  A
C889        C893   1.503       .  S
C890        H894   1.085       .  S
C891        H901   1.111       .  S
C891        H902   1.110       .  S
C891        H903   1.110       .  S
C893        H904   1.111       .  S
C893        H905   1.101       .  S
C893        H906   1.109       .  S
H895       C1886   1.111   1_545  S
H896       C1886   1.111       .  S
C907        C908   1.398       .  A
C907        C912   1.406       .  A
C907        H917   1.085       .  S
C908        C913   1.486       .  S
C908        C909   1.409       .  A
C909        C910   1.404       .  A
C909        C914   1.510       .  S
C910        C911   1.412       .  A
C910        H915   1.081       .  S
C911        C912   1.426       .  A
C912        C916   1.504       .  S
C913        C918   1.412       .  A
C913        C922   1.403       .  A
C914        H930   1.110       .  S
C914        H931   1.105       .  S
C914        H932   1.111       .  S
C916        H927   1.111       .  S
C916        H928   1.100       .  S
C916        H929   1.107       .  S
C918        C919   1.404       .  A
C918        C923   1.509       .  S
C919        C920   1.402       .  A
C919        H924   1.081       .  S
C920        C921   1.415       .  A
C921        C922   1.404       .  A
C921        C925   1.501       .  S
C922        H926   1.085       .  S
C923        H933   1.111       .  S
C923        H934   1.110       .  S
C923        H935   1.105       .  S
C925        H936   1.110       .  S
C925        H937   1.098       .  S
C925        H938   1.110       .  S
C939        C940   1.404       .  A
C939        C944   1.403       .  A
C939       H1951   1.084       .  S
C940       C1947   1.510       .  S
C940        C941   1.424       .  A
C941        C942   1.412       .  A
C941        C946   1.510       .  S
C942        C943   1.406       .  A
C942        H947   1.079       .  S
C943        C944   1.422       .  A
C944        C948   1.505       .  S
C945       C1942   1.507   1_545  S
C945        C950   1.424       .  A
C945        C954   1.407       .  A
C946        H962   1.106       .  S
C946        H963   1.110       .  S
C946        H964   1.111       .  S
C948        H959   1.111       .  S
C948        H960   1.109       .  S
C948        H961   1.103       .  S
H949       C1941   1.084   1_545  S
C950        C951   1.408       .  A
C950        C955   1.509       .  S
C951        C952   1.401       .  A
C951        H956   1.085       .  S
C952        C953   1.416       .  A
C953        C954   1.405       .  A
C953        C957   1.508       .  S
C954        H958   1.084       .  S
C955        H965   1.111       .  S
C955       H1968   1.110       .  S
C955       H1969   1.106       .  S
C957        H968   1.110       .  S
C957        H969   1.108       .  S
C957        H970   1.110       .  S
H966       C1957   1.110       .  S
H967       C1957   1.107       .  S
C971        C972   1.400       .  A
C971        C976   1.401       .  A
C971       H2985   1.085       .  S
C972       C2981   1.480       .  S
C972        C973   1.412       .  A
C973        C974   1.405       .  A
C973        C978   1.507       .  S
C974        C975   1.404       .  A
C974        H979   1.084       .  S
C975        C976   1.417       .  A
C976        C980   1.506       .  S
C977       C2976   1.480   1_455  S
C977        C982   1.411       .  A
C977        C986   1.395       .  A
C978        H994   1.110       .  S
C978        H995   1.107       .  S
C978        H996   1.111       .  S
C980        H991   1.110       .  S
C980        H992   1.111       .  S
C980        H993   1.102       .  S
H981       C2975   1.085   1_455  S
C982        C983   1.408       .  A
C982        C987   1.507       .  S
C983        C984   1.407       .  A
C983        H988   1.080       .  S
C984        C985   1.426       .  A
C985        C986   1.397       .  A
C985        C989   1.508       .  S
C986        H990   1.085       .  S
C987        H997   1.111       .  S
C987        H998   1.111       .  S
C987        H999   1.107       .  S
C989       H1000   1.111       .  S
C989       H1001   1.101       .  S
C989       H1002   1.110       .  S
C1003      H1004   1.103       .  S
C1003      C1009   1.547       .  S
C1003      C1008   1.554       .  S
C1003      C1007   1.546       .  S
C1005      H1006   1.110       .  S
C1005      C1011   1.532       .  S
C1005      C1010   1.538       .  S
C1005      C1012   1.534       .  S
C1007      C1010   1.378       .  D
C1007      C1977   1.497       .  S
C1008      C1011   1.386       .  D
C1008      C1913   1.507       .  S
C1009      C1012   1.369       .  D
C1009      C1954   1.496       .  S
C1010      C1849   1.497       .  S
C1011      C1826   1.499       .  S
C1012      C1890   1.485       .  S
C1013      H1014   1.110       .  S
C1013      C1019   1.521       .  S
C1013      C1018   1.537       .  S
C1013      C1017   1.548       .  S
C1015      H1016   1.109       .  S
C1015      C1021   1.562       .  S
C1015      C1020   1.533       .  S
C1015      C1022   1.560       .  S
C1017      C1020   1.371       .  D
C1017      C1721   1.489       .  S
C1018      C1021   1.389       .  D
C1018      C1794   1.502       .  S
C1019      C1022   1.376       .  D
C1019      C1762   1.494       .  S
C1020      C1922   1.493       .  S
C1021      C1945   1.519       .  S
C1022      C1986   1.502       .  S
O1023     Ni1029   1.942       .  S
O1023      C1044   1.273       .  A
O1024     Ni1047   1.923       .  S
O1024      C1033   1.270       .  A
O1025     Ni1029   1.913       .  S
O1025     Ni1047   1.920       .  S
O1025     Ni1041   1.915       .  S
O1025      H1048   0.966       .  S
C1026      O1043   1.273       .  A
C1026      O1035   1.277       .  A
C1026      C1689   1.478       .  S
O1027     Ni1046   1.913       .  S
O1027      C1033   1.265       .  A
O1028     Ni1046   1.909       .  S
O1028      C1030   1.267       .  A
Ni1029     O1032   1.937       .  S
Ni1029     O1034   1.905       .  S
C1030      O1040   1.271       .  A
C1030      C1634   1.482       .  S
O1031     Ni1047   1.918       .  S
O1031      C1037   1.276       .  A
O1032      C1037   1.279       .  A
C1033      C1881   1.489       .  S
O1034      C1036   1.267       .  A
O1035     Ni1046   1.921       .  S
C1036      O1042   1.271       .  A
C1036      C1858   1.469       .  S
C1037      C1817   1.498       .  S
H1038      O1039   0.966       .  S
O1039     Ni1047   1.915       .  S
O1039     Ni1041   1.894       .  S
O1039     Ni1046   1.904       .  S
O1040     Ni1041   1.929       .  S
Ni1041     O1045   1.896       .  S
Ni1041     O1043   1.911       .  S
O1042     Ni1047   1.928       .  S
C1044      O1045   1.264       .  A
C1044      C1657   1.484       .  S
C1049      H1050   1.110       .  S
C1049      C1054   1.542       .  S
C1051      H1052   1.093       .  S
C1051      C1057   1.562       .  S
C1053      C1056   1.367       .  D
C1053      C3702   1.480       .  S
C1054      C1057   1.400       .  D
C1054      C3670   1.506       .  S
C1055      C1058   1.367       .  D
C1055      C1625   1.488       .  S
C1056      C3542   1.488       .  S
C1057      C3565   1.534       .  S
C1058      C1602   1.484       .  S
C1059      H1060   1.102       .  S
C1059      C1065   1.555       .  S
C1059      C1064   1.542       .  S
C1059      C1063   1.540       .  S
C1061      H1062   1.112       .  S
C1061      C1067   1.529       .  S
C1061      C1066   1.525       .  S
C1061      C1068   1.528       .  S
C1063      C1066   1.365       .  D
C1063      C1570   1.488       .  S
C1064      C1067   1.376       .  D
C1064      C1593   1.492       .  S
C1065      C1068   1.384       .  D
C1065      C1529   1.503       .  S
C1066      C1465   1.471       .  S
C1067      C1433   1.484       .  S
C1068      C1497   1.487       .  S
C1069      H1070   1.109       .  S
C1069      C1075   1.545       .  S
C1069      C1074   1.556       .  S
C1069      C1073   1.535       .  S
C1071      H1072   1.107       .  S
C1071      C1077   1.541       .  S
C1071      C1076   1.542       .  S
C1071      C1078   1.530       .  S
C1073      C1076   1.372       .  D
C1073      C1346   1.487       .  S
C1074      C1077   1.391       .  D
C1074      C1369   1.511       .  S
C1075      C1078   1.366       .  D
C1075      C1401   1.489       .  S
C1076      C1314   1.492       .  S
C1077      C1282   1.498       .  S
C1078      C1241   1.487       .  S
C1079      H1080   1.106   1_545  S
C1079      C1085   1.549   1_545  S
C1081      H1082   1.106       .  S
C1081      C1088   1.535   1_545  S
C1083      C1086   1.373       .  D
C1083      C1378   1.491       .  S
C1084      C1087   1.380       .  D
C1084      C3341   1.504   1_455  S
C1085      C1088   1.381       .  D
C1085      C3414   1.506   1_455  S
C1086      C1154   1.487       .  S
C1087      C3213   1.496   1_455  S
C1088      C3190   1.494   1_455  S
O1089     Ni1095   1.936       .  S
O1089      C1110   1.273       .  A
O1090     Ni1113   1.904       .  S
O1090      C1099   1.264       .  A
O1091     Ni1095   1.916       .  S
O1091     Ni1113   1.910       .  S
O1091     Ni1107   1.914       .  S
O1091      H1114   0.966       .  S
C1092      O1109   1.272       .  A
C1092      O1101   1.275       .  A
C1092      C1730   1.481       .  S
O1093     Ni1112   1.918       .  S
O1093      C1099   1.266       .  A
O1094     Ni1112   1.906       .  S
O1094      C1096   1.268       .  A
Ni1095     O1098   1.939       .  S
Ni1095     O1100   1.905       .  S
C1096      O1106   1.274       .  A
C1096      C1753   1.483       .  S
O1097     Ni1113   1.907       .  S
O1097      C1103   1.271       .  A
O1098      C1103   1.277       .  A
C1099      C1177   1.472       .  S
O1100      C1102   1.268       .  A
O1101     Ni1112   1.918       .  S
C1102      O1108   1.269       .  A
C1102      C1145   1.494       .  S
C1103      C1218   1.479       .  S
H1104      O1105   0.966       .  S
O1105     Ni1113   1.915       .  S
O1105     Ni1107   1.906       .  S
O1105     Ni1112   1.912       .  S
O1106     Ni1107   1.935       .  S
Ni1107     O1111   1.897       .  S
Ni1107     O1109   1.915       .  S
O1108     Ni1113   1.930       .  S
C1110      O1111   1.266       .  A
C1110      C1785   1.480       .  S
O1115     Ni1121   1.907   1_556  S
O1115      C1136   1.261       .  A
O1116     Ni3143   1.911   1_565  S
O1116      C1125   1.267       .  A
O1117     Ni1121   1.890       .  S
O1117     Ni3137   1.911   1_454  S
O1117      H1140   0.966       .  S
C1118      O1135   1.275       .  A
C1118      O1127   1.277   1_556  A
C1118      C1442   1.477       .  S
O1119     Ni1138   1.923       .  S
O1119      C1125   1.271       .  A
O1120     Ni1138   1.907   1_556  S
O1120      C3126   1.268       .  A
Ni1121     O1124   1.910       .  S
Ni1121     O1126   1.897       .  S
C1122      O3124   1.268       .  A
C1122      O1132   1.273   1_655  A
C1122      C1506   1.484   1_655  S
O1123      C1129   1.285       .  A
O1124      C1129   1.279       .  A
C1125      C1250   1.489       .  S
O1126      C3132   1.262       .  A
O1127     Ni1138   1.925       .  S
C1128      O3130   1.262       .  A
C1128      O1134   1.268       .  A
C1128      C1305   1.469       .  S
C1129      C1273   1.499       .  S
H1130      O1131   0.966       .  S
O1131     Ni3143   1.920   1_565  S
O1131     Ni1138   1.904       .  S
O1132     Ni2135   1.930   1_465  S
Ni1133     O2134   1.938       .  S
Ni1133     O3141   1.917       .  S
Ni1133     O3121   1.911   1_556  S
O1134     Ni2141   1.925       .  S
C1136      O1137   1.269       .  A
C1136      C1474   1.483       .  S
O1137     Ni3137   1.917   1_455  S
Ni1139     O3120   1.911   1_445  S
Ni1139     O2136   1.923       .  S
Ni1139     O3135   1.919   1_445  S
C1141      C1142   1.397       .  A
C1141      C1146   1.406       .  A
C1141      H1151   1.084       .  S
C1142      C1147   1.477       .  S
C1142      C1143   1.408       .  A
C1143      C1144   1.401       .  A
C1143      C1148   1.508       .  S
C1144      C1145   1.409       .  A
C1144      H1149   1.084       .  S
C1145      C1146   1.426       .  A
C1146      C1150   1.509       .  S
C1147      C1152   1.408       .  A
C1147      C1156   1.398       .  A
C1148      H1165   1.110       .  S
C1150      H1161   1.111       .  S
C1150      H1162   1.110       .  S
C1150      H1163   1.110       .  S
C1152      C1153   1.404       .  A
C1152      C1157   1.505       .  S
C1153      C1154   1.405       .  A
C1153      H1158   1.084       .  S
C1154      C1155   1.419       .  A
C1155      C1156   1.399       .  A
C1155      C1159   1.504       .  S
C1156      H1160   1.085       .  S
C1157      H1167   1.111       .  S
C1157      H1168   1.110       .  S
C1157      H1169   1.110       .  S
C1159      H1170   1.110       .  S
C1159      H1171   1.100       .  S
C1173      C1174   1.398       .  A
C1173      C1178   1.400       .  A
C1173      H1183   1.084       .  S
C1174      C1179   1.474       .  S
C1174      C1175   1.410       .  A
C1175      C1176   1.403       .  A
C1175      C1180   1.506       .  S
C1176      C1177   1.404       .  A
C1176      H1181   1.084       .  S
C1177      C1178   1.416       .  A
C1178      C1182   1.509       .  S
C1179      C1184   1.407       .  A
C1179      C1188   1.396       .  A
C1180      H1196   1.110       .  S
C1180      H1197   1.110       .  S
C1180      H1198   1.111       .  S
C1182      H1193   1.111       .  S
C1182      H1194   1.111       .  S
C1182      H1195   1.109       .  S
C1184      C1185   1.402       .  A
C1184      C1189   1.505       .  S
C1185      C1186   1.408       .  A
C1185      H1190   1.084       .  S
C1186      C3092   1.494       .  S
C1186      C3191   1.422       .  A
C1187      C3190   1.422   1_455  A
C1187      C3192   1.399   1_455  A
C1187      C1191   1.508       .  S
C1188      C3191   1.399       .  A
C1188      H3196   1.085       .  S
C1189      H1199   1.111       .  S
C1189      H1200   1.110       .  S
C1189      H1201   1.110       .  S
C1191      H1202   1.105       .  S
C1191      H1203   1.102       .  S
C1191      H1204   1.111       .  S
H1192      C3192   1.085   1_455  S
C1205      C1206   1.399       .  A
C1205      C1210   1.399       .  A
C1205      H1215   1.085       .  S
C1206      C1211   1.487       .  S
C1206      C1207   1.413       .  A
C1207      C1208   1.410       .  A
C1207      C1212   1.505       .  S
C1208      C1209   1.407       .  A
C1208      H3217   1.084       .  S
C1209      C3091   1.496       .  S
C1209      C1210   1.416       .  A
C1210      C1214   1.504       .  S
C1211      C1216   1.414       .  A
C1211      C1220   1.404       .  A
C1212      H1228   1.109       .  S
C1212      H1229   1.111       .  S
C1212      H1230   1.111       .  S
H1213      C3212   1.084       .  S
C1214      H1225   1.111       .  S
C1214      H1226   1.106       .  S
C1214      H1227   1.110       .  S
C1216      C1217   1.402       .  A
C1216      C1221   1.506       .  S
C1217      C1218   1.402       .  A
C1217      H1222   1.084       .  S
C1218      C1219   1.414       .  A
C1219      C1220   1.407       .  A
C1219      C1223   1.506       .  S
C1220      H1224   1.084       .  S
C1221      H3235   1.111       .  S
C1221      H1232   1.109       .  S
C1221      H3237   1.108       .  S
C1223      H1234   1.111       .  S
C1223      H1235   1.110       .  S
C1223      H1236   1.110       .  S
H1231      C3225   1.111       .  S
H1233      C3225   1.108       .  S
C1237      C1238   1.398       .  A
C1237      C1242   1.400       .  A
C1237      H1247   1.084       .  S
C1238      C1243   1.472       .  S
C1238      C1239   1.407       .  A
C1239      C1240   1.400       .  A
C1239      C1244   1.506       .  S
C1240      C1241   1.404       .  A
C1240      H1245   1.079       .  S
C1241      C1242   1.413       .  A
C1242      C1246   1.501       .  S
C1243      C1248   1.408       .  A
C1243      C1252   1.397       .  A
C1244      H1260   1.110       .  S
C1244      H1261   1.110       .  S
C1244      H1262   1.111       .  S
C1246      H1257   1.105       .  S
C1246      H1258   1.111       .  S
C1246      H1259   1.108       .  S
C1248      C1249   1.398       .  A
C1248      C1253   1.509       .  S
C1249      C1250   1.408       .  A
C1249      H1254   1.084       .  S
C1250      C1251   1.422       .  A
C1251      C1252   1.405       .  A
C1251      C3259   1.504       .  S
C1252      H1256   1.084       .  S
C1253      H1263   1.111       .  S
C1253      H1264   1.110       .  S
C1253      H1265   1.110       .  S
C1255      H1266   1.110       .  S
C1255      H1267   1.106   1_655  S
C1255      H1268   1.111       .  S
C1255      C3255   1.504       .  S
C1269      C1270   1.400       .  A
C1269      C1274   1.408       .  A
C1269      H1279   1.084       .  S
C1270      C1275   1.477       .  S
C1270      C1271   1.404       .  A
C1271      C1272   1.399       .  A
C1271      C1276   1.508       .  S
C1272      C1273   1.415       .  A
C1272      H1277   1.083       .  S
C1273      C1274   1.423       .  A
C1274      C1278   1.507       .  S
C1275      C1280   1.409       .  A
C1275      C1284   1.395       .  A
C1276      H1292   1.110       .  S
C1276      H1293   1.110       .  S
C1276      H1294   1.111       .  S
C1280      C1281   1.404       .  A
C1280      C1285   1.505       .  S
C1281      C1282   1.408       .  A
C1281      H1286   1.084       .  S
C1282      C1283   1.424       .  A
C1283      C1284   1.400       .  A
C1283      C1287   1.507       .  S
C1284      H1288   1.085       .  S
C1285      H1295   1.111       .  S
C1285      H1296   1.110       .  S
C1285      H1297   1.110       .  S
C1287      H1298   1.111       .  S
C1287      H1299   1.103       .  S
C1287      H1300   1.104       .  S
C1301      C1302   1.402       .  A
C1301      C1306   1.404       .  A
C1301      H1311   1.084       .  S
C1302      C1307   1.479       .  S
C1302      C1303   1.412       .  A
C1303      C1304   1.403       .  A
C1303      C1308   1.507       .  S
C1304      C1305   1.401       .  A
C1304      H1309   1.084       .  S
C1305      C1306   1.412       .  A
C1306      C1310   1.507       .  S
C1307      C1312   1.408       .  A
C1307      C1316   1.400       .  A
C1308      H1324   1.110       .  S
C1308      H1325   1.110       .  S
C1308      H1326   1.111       .  S
C1310      H1322   1.111       .  S
C1310      H1323   1.111       .  S
C1312      C1313   1.401       .  A
C1312      C1317   1.506       .  S
C1313      C1314   1.403       .  A
C1313      H1318   1.077       .  S
C1314      C1315   1.413       .  A
C1315      C1316   1.404       .  A
C1315      C1319   1.500       .  S
C1316      H1320   1.084       .  S
C1317      H1327   1.111       .  S
C1317      H1328   1.110       .  S
C1317      H1329   1.110       .  S
C1319      H1330   1.111       .  S
C1319      H1331   1.110       .  S
C1319      H1332   1.107       .  S
C1333      C1334   1.400       .  A
C1333      C3342   1.405       .  A
C1333      H3347   1.084       .  S
C1334      C1339   1.489       .  S
C1334      C1335   1.413       .  A
C1335      C1336   1.402       .  A
C1335      C1340   1.508       .  S
C1336      C1337   1.407       .  A
C1337      C3088   1.504       .  S
C1337      C3342   1.420       .  A
C1338      C3337   1.405   1_455  A
C1338      C3341   1.420   1_455  A
C1338      C1342   1.502       .  S
C1339      C1344   1.418       .  A
C1339      C1348   1.399       .  A
C1340      H1356   1.107       .  S
C1340      H1357   1.110       .  S
C1342      H1353   1.111       .  S
C1342      H1354   1.105       .  S
C1342      H1355   1.103       .  S
H1343      C3337   1.084       .  S
C1344      C1345   1.408       .  A
C1344      C1349   1.508       .  S
C1345      C1346   1.402       .  A
C1345      H1350   1.084       .  S
C1346      C1347   1.416       .  A
C1347      C1348   1.397       .  A
C1347      C1351   1.502       .  S
C1348      H1352   1.084       .  S
C1349      H1359   1.111       .  S
C1349      H1360   1.107       .  S
C1349      H1361   1.111       .  S
C1351      H1362   1.110       .  S
C1351      H1363   1.110       .  S
C1351      H1364   1.096       .  S
C1365      C1366   1.405       .  A
C1365      C1370   1.401       .  A
C1365      H1375   1.084       .  S
C1366      C1371   1.499       .  S
C1366      C1367   1.418       .  A
C1367      C1368   1.403       .  A
C1367      C1372   1.509       .  S
C1368      C1369   1.409       .  A
C1368      H1373   1.081       .  S
C1369      C1370   1.424       .  A
C1370      C1374   1.506       .  S
C1371      C1376   1.419       .  A
C1371      C1380   1.407       .  A
C1372      H1388   1.107       .  S
C1372      H1389   1.110       .  S
C1372      H1390   1.111       .  S
C1374      H1385   1.110       .  S
C1374      H1386   1.111       .  S
C1374      H1387   1.100       .  S
C1376      C1377   1.402       .  A
C1376      C1381   1.508       .  S
C1377      C1378   1.404       .  A
C1377      H1382   1.084       .  S
C1378      C1379   1.415       .  A
C1379      C1380   1.401       .  A
C1379      C1383   1.505       .  S
C1380      H1384   1.084       .  S
C1381      H1391   1.110       .  S
C1381      H1392   1.111       .  S
C1381      H1393   1.107       .  S
C1383      H1396   1.110       .  S
C1397      C1398   1.406       .  A
C1397      C1402   1.407       .  A
C1397      H1407   1.083       .  S
C1398      C1403   1.498       .  S
C1398      C1399   1.419       .  A
C1399      C1400   1.404       .  A
C1399      C1404   1.510       .  S
C1400      C1401   1.401       .  A
C1400      H1405   1.084       .  S
C1401      C1402   1.414       .  A
C1402      C1406   1.505       .  S
C1403      C1408   1.419       .  A
C1403      C1412   1.400       .  A
C1404      H3424   1.107       .  S
C1404      H1421   1.111       .  S
C1404      H1422   1.111       .  S
C1406      H1417   1.106       .  S
C1406      H1418   1.110       .  S
C1406      H1419   1.110       .  S
C1408      C1409   1.412       .  A
C1408      C1413   1.508       .  S
C1409      C1410   1.406       .  A
C1409      H1414   1.084       .  S
C1410      C3089   1.506       .  S
C1410      C3415   1.421       .  A
C1411      C3414   1.421       .  A
C1411      C3416   1.400       .  A
C1411      C1415   1.504   1_655  S
C1412      C3415   1.400       .  A
C1412      H1416   1.084       .  S
C1413      H1423   1.111       .  S
C1413      H1424   1.107       .  S
C1413      H1425   1.111       .  S
C1415      H1426   1.110       .  S
C1415      H1427   1.100       .  S
C1415      H1428   1.111       .  S
H1420      C3408   1.107   1_455  S
C1429      C1430   1.404       .  A
C1429      C1434   1.405       .  A
C1429      H1439   1.084       .  S
C1430      C1435   1.483       .  S
C1430      C1431   1.412       .  A
C1431      C1432   1.400       .  A
C1431      C1436   1.508       .  S
C1432      C1433   1.400       .  A
C1432      H1437   1.081       .  S
C1433      C1434   1.415       .  A
C1434      C1438   1.506       .  S
C1435      C1440   1.411       .  A
C1435      C1444   1.401       .  A
C1436      H1452   1.109       .  S
C1436      H1453   1.111       .  S
C1436      H1454   1.111       .  S
C1438      H1449   1.110       .  S
C1438      H1450   1.110       .  S
C1438      H1451   1.107       .  S
C1440      C1441   1.404       .  A
C1440      C1445   1.505       .  S
C1441      C1442   1.405       .  A
C1441      H1446   1.084       .  S
C1442      C1443   1.417       .  A
C1443      C1444   1.402       .  A
C1443      C1447   1.508   1_556  S
C1444      H1448   1.085       .  S
C1445      H1455   1.111       .  S
C1445      H1456   1.109       .  S
C1445      H1457   1.108       .  S
C1447      H1458   1.111       .  S
C1447      H1459   1.107       .  S
C1447      H1460   1.110       .  S
C1461      C1462   1.400       .  A
C1461      C1466   1.398       .  A
C1461      H1471   1.085       .  S
C1462      C1467   1.467       .  S
C1462      C1463   1.407       .  A
C1463      C1464   1.397       .  A
C1463      C1468   1.506       .  S
C1464      C1465   1.400       .  A
C1464      H1469   1.081       .  S
C1465      C1466   1.412       .  A
C1466      C1470   1.504       .  S
C1467      C1472   1.406       .  A
C1467      C1476   1.393       .  A
C1468      H1484   1.110       .  S
C1468      H1485   1.110   1_455  S
C1468      H1486   1.111       .  S
C1470      H1481   1.110       .  S
C1470      H1482   1.111       .  S
C1470      H1483   1.106       .  S
C1472      C1473   1.404       .  A
C1472      C1477   1.506       .  S
C1473      C1474   1.409       .  A
C1473      H1478   1.084       .  S
C1474      C1475   1.426       .  A
C1475      C1476   1.395       .  A
C1475      C3483   1.512       .  S
C1476      H1480   1.085       .  S
C1477      H1487   1.111       .  S
C1477      H1488   1.110       .  S
C1477      H1489   1.110       .  S
C1479      H3494   1.110       .  S
C1479      H1491   1.110   1_556  S
C1479      H1492   1.111       .  S
C1479      C3479   1.512       .  S
H1490      C3483   1.110       .  S
C1493      C1494   1.404       .  A
C1493      C1498   1.408       .  A
C1493      H1503   1.084       .  S
C1494      C1499   1.484       .  S
C1494      C1495   1.409       .  A
C1495      C1496   1.399       .  A
C1495      C1500   1.507       .  S
C1496      C1497   1.403       .  A
C1496      H1501   1.083       .  S
C1497      C1498   1.415       .  A
C1498      C1502   1.506       .  S
C1499      C1504   1.410       .  A
C1499      C1508   1.401       .  A
C1500      H1516   1.110       .  S
C1500      H1517   1.110       .  S
C1500      H1518   1.111       .  S
C1502      H1513   1.110       .  S
C1502      H1514   1.110       .  S
C1502      H1515   1.107       .  S
C1504      C1505   1.406       .  A
C1504      C1509   1.505       .  S
C1505      C1506   1.406       .  A
C1505      H3514   1.084       .  S
C1506      C1507   1.418       .  A
C1507      C1508   1.405       .  A
C1507      C1511   1.508       .  S
C1508      H1512   1.084       .  S
C1509      H3523   1.111       .  S
C1509      H1520   1.110       .  S
C1509      H1521   1.109       .  S
H1510      C3509   1.084       .  S
C1511      H1522   1.109   1_456  S
C1511      H1523   1.111   1_556  S
C1511      H1524   1.111       .  S
H1519      C3513   1.111       .  S
C1525      C1526   1.403       .  A
C1525      C1530   1.408       .  A
C1525      H1535   1.084       .  S
C1526      C1531   1.488       .  S
C1526      C1527   1.411       .  A
C1527      C1528   1.400       .  A
C1527      C1532   1.511       .  S
C1528      C1529   1.408       .  A
C1528      H1533   1.080       .  S
C1529      C1530   1.420       .  A
C1530      C1534   1.505       .  S
C1531      C1536   1.414       .  A
C1531      C1540   1.404       .  A
C1532      H1548   1.110       .  S
C1532      H1549   1.104       .  S
C1532      H1550   1.110       .  S
C1534      H1545   1.104       .  S
C1534      H1546   1.111       .  S
C1534      H1547   1.106       .  S
C1536      C1537   1.404       .  A
C1536      C1541   1.511       .  S
C1537      C1538   1.402       .  A
C1537      H1542   1.082   1_565  S
C1538      C3060   1.488   1_455  S
C1538      C1539   1.414   1_455  A
C1539      C1540   1.404   1_655  A
C1539      C3547   1.503       .  S
C1540      H1544   1.084   1_455  S
C1541      H1551   1.111   1_565  S
C1541      H1552   1.110       .  S
C1541      H1553   1.104       .  S
C1543      H1554   1.111       .  S
C1543      H1555   1.104       .  S
C1543      H1556   1.110       .  S
C1543      C3543   1.503       .  S
C1557      C1558   1.398       .  A
C1557      C3566   1.409       .  A
C1557      H3571   1.085       .  S
C1558      C1563   1.494       .  S
C1558      C1559   1.408       .  A
C1559      C1560   1.404       .  A
C1559      C1564   1.505       .  S
C1560      C1561   1.414       .  A
C1560      H1565   1.080       .  S
C1561      C3061   1.534       .  S
C1561      C3566   1.432       .  A
C1562      C3561   1.409       .  A
C1562      C3565   1.432       .  A
C1562      C1566   1.504       .  S
C1563      C1568   1.416       .  A
C1563      C1572   1.405       .  A
C1564      H1580   1.107       .  S
C1564      H1581   1.109       .  S
C1564      H1582   1.109       .  S
C1566      H1577   1.111       .  S
C1566      H1578   1.110       .  S
C1566      H1579   1.098       .  S
H1567      C3561   1.085       .  S
C1568      C1569   1.402       .  A
C1568      C1573   1.509       .  S
C1569      C1570   1.400       .  A
C1569      H1574   1.082       .  S
C1570      C1571   1.415       .  A
C1571      C1572   1.406       .  A
C1571      C1575   1.505       .  S
C1572      H1576   1.082       .  S
C1573      H1583   1.111       .  S
C1573      H1584   1.108       .  S
C1573      H1585   1.111       .  S
C1575      H1586   1.110       .  S
C1575      H1587   1.104       .  S
C1575      H1588   1.110       .  S
C1589      C1590   1.401       .  A
C1589      C1594   1.403       .  A
C1589      H1599   1.084       .  S
C1590      C1595   1.480       .  S
C1590      C1591   1.410       .  A
C1591      C1592   1.400       .  A
C1591      C1596   1.510       .  S
C1592      C1593   1.407       .  A
C1592      H1597   1.082       .  S
C1593      C1594   1.417       .  A
C1594      C1598   1.509       .  S
C1595      C1600   1.412       .  A
C1595      C1604   1.401       .  A
C1596      H1612   1.110       .  S
C1596      H1613   1.105       .  S
C1596      H1614   1.111       .  S
C1598      H1609   1.111       .  S
C1598      H1610   1.109       .  S
C1598      H1611   1.105       .  S
C1600      C1601   1.402       .  A
C1600      C1605   1.511       .  S
C1601      C1602   1.403       .  A
C1601      H1606   1.078       .  S
C1602      C1603   1.416       .  A
C1603      C1604   1.401       .  A
C1604      H1608   1.085       .  S
C1605      H1615   1.111       .  S
C1605      H1616   1.110       .  S
C1605      H1617   1.105       .  S
C1607      H1618   1.110       .  S
C1607      H1619   1.106       .  S
C1607      H1620   1.109       .  S
C1621      C1622   1.402       .  A
C1621      C1626   1.405       .  A
C1621      H1631   1.084       .  S
C1622      C1627   1.486       .  S
C1622      C1623   1.411       .  A
C1623      C1624   1.406       .  A
C1623      C1628   1.506       .  S
C1624      C1625   1.404       .  A
C1624      H1629   1.082       .  S
C1625      C1626   1.414       .  A
C1626      C1630   1.505   1_565  S
C1627      C1632   1.413       .  A
C1627      C1636   1.402       .  A
C1628      H1644   1.110       .  S
C1628      H1645   1.108       .  S
C1628      H1646   1.111       .  S
C1630      H1641   1.110       .  S
C1632      C1633   1.408       .  A
C1632      C1637   1.507       .  S
C1633      C1634   1.405       .  A
C1633      H1638   1.084       .  S
C1634      C1635   1.415       .  A
C1635      C1636   1.405       .  A
C1635      C1639   1.508       .  S
C1636      H1640   1.084       .  S
C1637      H1647   1.111       .  S
C1637      H1648   1.110       .  S
C1637      H1649   1.109       .  S
C1639      H1650   1.109       .  S
C1639      H1651   1.111       .  S
C1639      H1652   1.111       .  S
C1653      C1654   1.401       .  A
C1653      C1658   1.405       .  A
C1653      H1663   1.084   1_455  S
C1654      C1659   1.481       .  S
C1654      C1655   1.411       .  A
C1655      C1656   1.403       .  A
C1655      C1660   1.503       .  S
C1656      C1657   1.404       .  A
C1656      H1661   1.084       .  S
C1657      C1658   1.418       .  A
C1658      C1662   1.507       .  S
C1659      C1664   1.409       .  A
C1659      C1668   1.393       .  A
C1660      H1676   1.107       .  S
C1660      H1677   1.109       .  S
C1660      H1678   1.111       .  S
C1662      H1673   1.111   1_455  S
C1662      H1674   1.109       .  S
C1662      H1675   1.110       .  S
C1664      C3669   1.411       .  A
C1664      C3673   1.504   1_455  S
C1665      C3668   1.411       .  A
C1665      C3670   1.413       .  A
C1665      H1670   1.084       .  S
C1666      C3058   1.506       .  S
C1666      C3669   1.413       .  A
C1666      C1667   1.423       .  A
C1667      C1668   1.395       .  A
C1667      C1671   1.500       .  S
C1668      H1672   1.086       .  S
C1669      H1679   1.111       .  S
C1669      H1680   1.110       .  S
C1669      H3685   1.109       .  S
C1669      C3668   1.504       .  S
C1671      H1682   1.111       .  S
C1671      H1683   1.088       .  S
C1671      H1684   1.110       .  S
H1681      C3673   1.109   1_455  S
C1685      C1686   1.398       .  A
C1685      C1690   1.402       .  A
C1685      H1695   1.084       .  S
C1686      C1691   1.472       .  S
C1686      C1687   1.409       .  A
C1687      C1688   1.401       .  A
C1687      C1692   1.508       .  S
C1688      C1689   1.406       .  A
C1688      H1693   1.084       .  S
C1689      C1690   1.419       .  A
C1690      C1694   1.509       .  S
C1691      C1696   1.408   1_455  A
C1691      C1700   1.397       .  A
C1692      H1708   1.110       .  S
C1692      H1709   1.109       .  S
C1692      H1710   1.111       .  S
C1694      H1705   1.110       .  S
C1694      H1706   1.111       .  S
C1694      H1707   1.111       .  S
C1696      C3701   1.402       .  A
C1696      C3705   1.506       .  S
C1697      C3700   1.402       .  A
C1697      C3702   1.402       .  A
C1697      H1702   1.081       .  S
C1698      C3057   1.480   1_455  S
C1698      C3701   1.402   1_455  A
C1698      C1699   1.418       .  A
C1699      C1700   1.396       .  A
C1700      H1704   1.085       .  S
C1701      H1711   1.111       .  S
C1701      H1712   1.110       .  S
C1701      H1713   1.109       .  S
C1701      C3700   1.506       .  S
C1703      H1714   1.110       .  S
C1703      H1715   1.109       .  S
C1703      H1716   1.109       .  S
C1717      C1718   1.397       .  A
C1717      C1722   1.397       .  A
C1717      H1727   1.085       .  S
C1718      C1723   1.478       .  S
C1718      C1719   1.408       .  A
C1719      C1720   1.406       .  A
C1719      C1724   1.504       .  S
C1720      C1721   1.405       .  A
C1720      H1725   1.082       .  S
C1721      C1722   1.419       .  A
C1722      C1726   1.501       .  S
C1723      C1728   1.410       .  A
C1723      C1732   1.400       .  A
C1724      H1740   1.110       .  S
C1724      H1741   1.110       .  S
C1724      H1742   1.111       .  S
C1726      H1737   1.110       .  S
C1726      H1738   1.109       .  S
C1726      H1739   1.099       .  S
C1728      C1729   1.400       .  A
C1728      C1733   1.508       .  S
C1729      C1730   1.404       .  A
C1729      H1734   1.084       .  S
C1730      C1731   1.418       .  A
C1731      C1732   1.407       .  A
C1731      C1735   1.508       .  S
C1732      H1736   1.084       .  S
C1733      H1743   1.111       .  S
C1733      H1744   1.110       .  S
C1733      H1745   1.110       .  S
C1735      H1746   1.111       .  S
C1735      H1747   1.110       .  S
C1735      H1748   1.111       .  S
C1749      C3754   1.401       .  A
C1749      C1754   1.405       .  A
C1749      H3763   1.084       .  S
C1750      C1755   1.487   1_655  S
C1750      C3753   1.401   1_655  A
C1750      C3755   1.412       .  A
C1751      C3754   1.412       .  A
C1751      C1752   1.408       .  A
C1751      C1756   1.506       .  S
C1752      C1753   1.405       .  A
C1752      H1757   1.084       .  S
C1753      C1754   1.417       .  A
C1754      C1758   1.509       .  S
C1755      C1760   1.410       .  A
C1755      C1764   1.403       .  A
C1756      H1772   1.110       .  S
C1756      H3777   1.110       .  S
C1756      H1774   1.111       .  S
C1758      H1769   1.111       .  S
C1758      H1770   1.111       .  S
C1758      H1771   1.109       .  S
H1759      C3753   1.084       .  S
C1760      C1761   1.404       .  A
C1760      C1765   1.506       .  S
C1761      C1762   1.406       .  A
C1761      H1766   1.082       .  S
C1762      C1763   1.417       .  A
C1763      C1764   1.406       .  A
C1763      C1767   1.507       .  S
C1764      H3772   1.084       .  S
C1765      H1775   1.111       .  S
C1765      H1776   1.110       .  S
C1765      H1777   1.110       .  S
C1767      H1778   1.111       .  S
C1767      H1779   1.106       .  S
C1767      H1780   1.110       .  S
H1768      C3768   1.084       .  S
H1773      C3760   1.110       .  S
C1781      C1782   1.400       .  A
C1781      H1791   1.084   1_545  S
C1782      C1787   1.480   1_545  S
C1783      C1784   1.403       .  A
C1783      C1788   1.507       .  S
C1784      C1785   1.404       .  A
C1784      H1789   1.084       .  S
C1785      C1786   1.418       .  A
C1786      C1790   1.509       .  S
C1787      C1792   1.408       .  A
C1787      C1796   1.394       .  A
C1788      H1804   1.110       .  S
C1788      H1805   1.110       .  S
C1788      H1806   1.111       .  S
C1790      H1802   1.111       .  S
C1790      H1803   1.109       .  S
C1792      C1793   1.408       .  A
C1792      C1797   1.504       .  S
C1793      C1794   1.411       .  A
C1793      H1798   1.084       .  S
C1794      C1795   1.424       .  A
C1795      C1796   1.397       .  A
C1795      C1799   1.502       .  S
C1796      H1800   1.086       .  S
C1797      H1807   1.111       .  S
C1797      H1808   1.110       .  S
C1797      H1809   1.110   1_565  S
C1799      H1810   1.110       .  S
C1799      H1811   1.090       .  S
C1799      H1812   1.111       .  S
C1813      C1814   1.402       .  A
C1813      C1818   1.410       .  A
C1813      H1823   1.084       .  S
C1814      C1819   1.487       .  S
C1814      C1815   1.409       .  A
C1815      C1816   1.404       .  A
C1815      C1820   1.508       .  S
C1816      C1817   1.410       .  A
C1816      H1821   1.084       .  S
C1817      C1818   1.422       .  A
C1818      C1822   1.508       .  S
C1819      C1824   1.413       .  A
C1819      C1828   1.397       .  A
C1820      H1836   1.110       .  S
C1820      H1837   1.109       .  S
C1820      H1838   1.111       .  S
C1822      H1833   1.111       .  S
C1822      H1834   1.110       .  S
C1822      H1835   1.110       .  S
C1824      C1825   1.410       .  A
C1824      C1829   1.505       .  S
C1825      C1826   1.406       .  A
C1825      H1830   1.084       .  S
C1826      C1827   1.418       .  A
C1827      C1828   1.402       .  A
C1827      C1831   1.503       .  S
C1828      H1832   1.084       .  S
C1829      H1839   1.111       .  S
C1829      H1840   1.110       .  S
C1829      H1841   1.109       .  S
C1831      H1842   1.111       .  S
C1831      H1843   1.109       .  S
C1831      H1844   1.106       .  S
C1845      C1846   1.397       .  A
C1845      C1850   1.398       .  A
C1845      H1855   1.085       .  S
C1846      C1851   1.477       .  S
C1846      C1847   1.408       .  A
C1847      C1848   1.403       .  A
C1847      C1852   1.506       .  S
C1848      C1849   1.409       .  A
C1848      H1853   1.083       .  S
C1849      C1850   1.420       .  A
C1850      C1854   1.502       .  S
C1851      C1856   1.411       .  A
C1851      C3864   1.399       .  A
C1852      H3872   1.110       .  S
C1852      H1869   1.110       .  S
C1852      H1870   1.111       .  S
C1854      H1865   1.110       .  S
C1854      H1866   1.111       .  S
C1854      H1867   1.093       .  S
C1856      C3861   1.405       .  A
C1856      C1861   1.506       .  S
C1857      C3860   1.405   1_455  A
C1857      C1858   1.403       .  A
C1857      H1862   1.084       .  S
C1858      C1859   1.416       .  A
C1859      C1860   1.399       .  A
C1859      C1863   1.508       .  S
C1860      C3855   1.399       .  A
C1860      H1864   1.085       .  S
C1861      H1871   1.111       .  S
C1861      H1872   1.110       .  S
C1861      H1873   1.111       .  S
C1863      H1874   1.111       .  S
C1863      H1875   1.104       .  S
C1863      H1876   1.110       .  S
H1868      C3856   1.110   1_455  S
C1877      C1878   1.398       .  A
C1877      H1887   1.085       .  S
C1878      C1883   1.474       .  S
C1879      C1880   1.407       .  A
C1879      C1884   1.506       .  S
C1880      C1881   1.410       .  A
C1880      H1885   1.084       .  S
C1881      C1882   1.422       .  A
C1882      C1886   1.510       .  S
C1883      C1888   1.410       .  A
C1883      C1892   1.395       .  A
C1884      H1900   1.110       .  S
C1884      H1901   1.110       .  S
C1884      H1902   1.111       .  S
C1886      H1899   1.109       .  S
C1888      C1889   1.403       .  A
C1888      C1893   1.505       .  S
C1889      C1890   1.402       .  A
C1889      H1894   1.084       .  S
C1890      C1891   1.420       .  A
C1891      C1892   1.397       .  A
C1891      C1895   1.503       .  S
C1892      H1896   1.085       .  S
C1893      H1903   1.111       .  S
C1893      H1904   1.110       .  S
C1893      H1905   1.110       .  S
C1895      H1906   1.111       .  S
C1895      H1907   1.100       .  S
C1895      H1908   1.108       .  S
C1909      C1910   1.400       .  A
C1909      C1914   1.406       .  A
C1909      H1919   1.085       .  S
C1910      C1915   1.481       .  S
C1910      C1911   1.408       .  A
C1911      C1912   1.401       .  A
C1911      C1916   1.509       .  S
C1912      C1913   1.410       .  A
C1912      H1917   1.081       .  S
C1913      C1914   1.423       .  A
C1914      C1918   1.505       .  S
C1915      C1920   1.411       .  A
C1915      C1924   1.400       .  A
C1916      H1932   1.110       .  S
C1916      H1933   1.105       .  S
C1916      H1934   1.111       .  S
C1918      H1929   1.111       .  S
C1918      H1930   1.101       .  S
C1918      H1931   1.107       .  S
C1920      C1921   1.404       .  A
C1920      C1925   1.509       .  S
C1921      C1922   1.403       .  A
C1921      H1926   1.079       .  S
C1922      C1923   1.415       .  A
C1923      C1924   1.401       .  A
C1923      C1927   1.499       .  S
C1924      H1928   1.085       .  S
C1925      H1935   1.111       .  S
C1925      H1936   1.110       .  S
C1925      H1937   1.105       .  S
C1927      H1938   1.110       .  S
C1927      H1939   1.096       .  S
C1927      H1940   1.111       .  S
C1941      C1942   1.402       .  A
C1941      C1946   1.403       .  A
C1942      C1943   1.422       .  A
C1943      C1944   1.411       .  A
C1943      C1948   1.509       .  S
C1944      C1945   1.409       .  A
C1944      H1949   1.081       .  S
C1945      C1946   1.425       .  A
C1946      C1950   1.503       .  S
C1947      C1952   1.426       .  A
C1947      C1956   1.407       .  A
C1948      H1964   1.110       .  S
C1948      H1965   1.107       .  S
C1948      H1966   1.111       .  S
C1950      H1961   1.111       .  S
C1950      H1962   1.107       .  S
C1950      H1963   1.097       .  S
C1952      C1953   1.409       .  A
C1952      C1957   1.510       .  S
C1953      C1954   1.401       .  A
C1953      H1958   1.085       .  S
C1954      C1955   1.416       .  A
C1955      C1956   1.405       .  A
C1955      C1959   1.508       .  S
C1956      H1960   1.081       .  S
C1957      H1967   1.110       .  S
C1959      H1970   1.110       .  S
C1959      H1971   1.108       .  S
C1959      H1972   1.110       .  S
C1973      C1974   1.401       .  A
C1973      C1978   1.403       .  A
C1973      H3987   1.085       .  S
C1974      C3983   1.486       .  S
C1974      C1975   1.412       .  A
C1975      C1976   1.407       .  A
C1975      C1980   1.507       .  S
C1976      C1977   1.406       .  A
C1976      H1981   1.084       .  S
C1977      C1978   1.419       .  A
C1978      C1982   1.506       .  S
C1979      C3978   1.486   1_455  S
C1979      C1984   1.413       .  A
C1979      C1988   1.396       .  A
C1980      H1996   1.110       .  S
C1980      H1997   1.107       .  S
C1980      H1998   1.111       .  S
C1982      H1993   1.110       .  S
C1982      H1994   1.110       .  S
C1982      H1995   1.101       .  S
H1983      C3977   1.085   1_455  S
C1984      C1985   1.411       .  A
C1984      C1989   1.507       .  S
C1985      C1986   1.407       .  A
C1985      H1990   1.082       .  S
C1986      C1987   1.425       .  A
C1987      C1988   1.399       .  A
C1987      C1991   1.508       .  S
C1988      H1992   1.085       .  S
C1989      H1999   1.111       .  S
C1989      H2000   1.111       .  S
C1989      H2001   1.107       .  S
C1991      H2002   1.111       .  S
C1991      H2003   1.103       .  S
C1991      H2004   1.110       .  S
C2005      H2006   1.103       .  S
C2005      C2011   1.546       .  S
C2005      C2010   1.552       .  S
C2005      C2009   1.543       .  S
C2007      H2008   1.111       .  S
C2007      C2013   1.536       .  S
C2007      C2012   1.537       .  S
C2007      C2014   1.536       .  S
C2009      C2012   1.373       .  D
C2009      C2979   1.488       .  S
C2010      C2013   1.388       .  D
C2010      C2915   1.514       .  S
C2011      C2014   1.372       .  D
C2011      C2956   1.494       .  S
C2012      C2851   1.498       .  S
C2013      C2828   1.493       .  S
C2014      C2892   1.490       .  S
C2015      H2016   1.110       .  S
C2015      C2021   1.524       .  S
C2015      C2020   1.532       .  S
C2015      C2019   1.547       .  S
C2017      H2018   1.110       .  S
C2017      C2023   1.559       .  S
C2017      C2022   1.532       .  S
C2017      C2024   1.560       .  S
C2019      C2022   1.372       .  D
C2019      C2723   1.487       .  S
C2020      C2023   1.385       .  D
C2020      C2796   1.495       .  S
C2021      C2024   1.378       .  D
C2021      C2764   1.498       .  S
C2022      C2924   1.493       .  S
C2023      C2947   1.515       .  S
C2024      C2988   1.500       .  S
O2025     Ni2031   1.936       .  S
O2025      C2046   1.272       .  A
O2026     Ni2049   1.912       .  S
O2026      C2035   1.268       .  A
O2027     Ni2031   1.911       .  S
O2027     Ni2049   1.911       .  S
O2027     Ni2043   1.908       .  S
O2027      H2050   0.966       .  S
C2028      O2045   1.272       .  A
C2028      O2037   1.276       .  A
C2028      C2691   1.474       .  S
O2029     Ni2048   1.919       .  S
O2029      C2035   1.267       .  A
O2030     Ni2048   1.910       .  S
O2030      C2032   1.269       .  A
Ni2031     O2034   1.933       .  S
Ni2031     O2036   1.906       .  S
C2032      O2042   1.277       .  A
C2032      C2636   1.494       .  S
O2033     Ni2049   1.917       .  S
O2033      C2039   1.276       .  A
O2034      C2039   1.279       .  A
C2035      C2883   1.488       .  S
O2036      C2038   1.266       .  A
O2037     Ni2048   1.920       .  S
C2038      O2044   1.270       .  A
C2038      C2860   1.475       .  S
C2039      C2819   1.490       .  S
H2040      O2041   0.966       .  S
O2041     Ni2049   1.915       .  S
O2041     Ni2043   1.901       .  S
O2041     Ni2048   1.905       .  S
O2042     Ni2043   1.943       .  S
Ni2043     O2047   1.903       .  S
Ni2043     O2045   1.910       .  S
O2044     Ni2049   1.932       .  S
C2046      O2047   1.268       .  A
C2046      C2659   1.484       .  S
C2051      H2052   1.111       .  S
C2051      C3059   1.524   1_545  S
C2051      C2056   1.544       .  S
C2051      C3057   1.540   1_545  S
C2053      H2054   1.099       .  S
C2053      C2059   1.554   1_655  S
C2053      C3060   1.532   1_545  S
C2053      C3062   1.552   1_545  S
C2055      C3053   1.543   1_455  S
C2055      C2058   1.366       .  D
C2056      C2059   1.396   1_655  D
C2057      C3053   1.521       .  S
C2057      C2060   1.369       .  D
C2057      C2627   1.497       .  S
C2058      C3055   1.533   1_455  S
C2060      C3055   1.559       .  S
C2060      C2604   1.493       .  S
C2061      H2062   1.104       .  S
C2061      C2067   1.555       .  S
C2061      C2066   1.545       .  S
C2061      C2065   1.541       .  S
C2063      H2064   1.112       .  S
C2063      C2069   1.534       .  S
C2063      C2068   1.531       .  S
C2063      C2070   1.532       .  S
C2065      C2068   1.364       .  D
C2065      C2572   1.491       .  S
C2066      C2069   1.379       .  D
C2066      C2595   1.496       .  S
C2067      C2070   1.384       .  D
C2067      C2531   1.502       .  S
C2068      C2467   1.477       .  S
C2069      C2435   1.491       .  S
C2070      C2499   1.493       .  S
C2071      H2072   1.109       .  S
C2071      C2077   1.549       .  S
C2071      C2076   1.557       .  S
C2071      C2075   1.534       .  S
C2073      H2074   1.105       .  S
C2073      C2079   1.542       .  S
C2073      C2078   1.545       .  S
C2073      C2080   1.529       .  S
C2075      C2078   1.373       .  D
C2075      C2348   1.494       .  S
C2076      C2079   1.390       .  D
C2076      C2371   1.510       .  S
C2077      C2080   1.366       .  D
C2077      C2403   1.486       .  S
C2078      C2316   1.486       .  S
C2079      C2284   1.505       .  S
C2080      C2243   1.495       .  S
C2081      H2082   1.107       .  S
C2081      C2087   1.550       .  S
C2081      C3088   1.553       .  S
C2081      C3087   1.544       .  S
C2083      H2084   1.105       .  S
C2083      C3091   1.528       .  S
C2083      C3090   1.534       .  S
C2083      C2090   1.536       .  S
C2085      C3083   1.547       .  S
C2085      C2088   1.376       .  D
C2085      C2380   1.487       .  S
C2086      C3083   1.552       .  S
C2086      C2089   1.379       .  D
C2087      C2090   1.380       .  D
C2088      C3085   1.535       .  S
C2088      C2156   1.498       .  S
C2089      C3085   1.531       .  S
O2091     Ni2097   1.938       .  S
O2091      C2112   1.273       .  A
O2092     Ni2115   1.909       .  S
O2092      C2101   1.266       .  A
O2093     Ni2097   1.917       .  S
O2093     Ni2115   1.914       .  S
O2093     Ni2109   1.914       .  S
O2093      H2116   0.966       .  S
C2094      O2111   1.271       .  A
C2094      O2103   1.275       .  A
C2094      C2732   1.483       .  S
O2095     Ni2114   1.921       .  S
O2095      C2101   1.268       .  A
O2096     Ni2114   1.906       .  S
O2096      C2098   1.268       .  A
Ni2097     O2100   1.938       .  S
Ni2097     O2102   1.906       .  S
C2098      O2108   1.275       .  A
C2098      C2755   1.487       .  S
O2099     Ni2115   1.910       .  S
O2099      C2105   1.271       .  A
O2100      C2105   1.277       .  A
C2101      C2179   1.479       .  S
O2102      C2104   1.268       .  A
O2103     Ni2114   1.917       .  S
C2104      O2110   1.271       .  A
C2104      C2147   1.494       .  S
C2105      C2220   1.476       .  S
H2106      O2107   0.966       .  S
O2107     Ni2115   1.913       .  S
O2107     Ni2109   1.906       .  S
O2107     Ni2114   1.910       .  S
O2108     Ni2109   1.938       .  S
Ni2109     O2113   1.900       .  S
Ni2109     O2111   1.914       .  S
O2110     Ni2115   1.934       .  S
C2112      O2113   1.266       .  A
C2112      C2787   1.480       .  S
O2117     Ni2123   1.918   1_556  S
O2117      C2138   1.266       .  A
O2118      C2127   1.269       .  A
O2119     Ni2123   1.904       .  S
O2119     Ni3143   1.907       .  S
O2119      H2142   0.966       .  S
C2120      O2137   1.273       .  A
C2120      O2129   1.277       .  A
C2120      C2444   1.474       .  S
O2121     Ni2140   1.935       .  S
O2121      C2127   1.275       .  A
O2122     Ni2140   1.907   1_556  S
Ni2123     O2126   1.917       .  S
Ni2123     O2128   1.899       .  S
C2124      O2134   1.276       .  A
C2124      C2508   1.494       .  S
O2125     Ni3143   1.928       .  S
O2125      C2131   1.279       .  A
O2126      C2131   1.277       .  A
C2127      C2252   1.495       .  S
O2129     Ni2140   1.932   1_556  S
C2130      O2136   1.269       .  A
C2130      C2307   1.471   1_455  S
C2131      C2275   1.498       .  S
H2132      O2133   0.966       .  S
O2133     Ni3137   1.909   1_554  S
O2133     Ni2140   1.900       .  S
Ni2135     O3139   1.917   1_545  S
Ni2135     O3135   1.902   1_546  S
O2137     Ni3137   1.913       .  S
C2138      O2139   1.267       .  A
C2138      C2476   1.483       .  S
Ni2141     O3127   1.939       .  S
Ni2141     O3121   1.891       .  S
C2143      C2144   1.400       .  A
C2143      C2148   1.407       .  A
C2143      H2153   1.084       .  S
C2144      C2149   1.484       .  S
C2144      C2145   1.410       .  A
C2145      C2146   1.404       .  A
C2145      C2150   1.508       .  S
C2146      C2147   1.409       .  A
C2146      H2151   1.084       .  S
C2147      C2148   1.423       .  A
C2148      C2152   1.509       .  S
C2149      C2154   1.410       .  A
C2149      C2158   1.397       .  A
C2150      H3168   1.110       .  S
C2150      H2167   1.109       .  S
C2150      H3170   1.111       .  S
C2152      H2163   1.111       .  S
C2152      H2164   1.111       .  S
C2152      H2165   1.110       .  S
C2154      C2155   1.407       .  A
C2154      C2159   1.506       .  S
C2155      C2156   1.407       .  A
C2155      H2160   1.084       .  S
C2156      C2157   1.422       .  A
C2157      C2158   1.402       .  A
C2157      C2161   1.503       .  S
C2158      H2162   1.085       .  S
C2159      H2169   1.111       .  S
C2159      H2170   1.110       .  S
C2159      H2171   1.109       .  S
C2161      H2172   1.110       .  S
C2161      H2173   1.099   1_545  S
C2161      H3176   1.111   1_545  S
H2166      C3152   1.110       .  S
H2168      C3152   1.111       .  S
H2174      C3163   1.110       .  S
C2175      C2176   1.398       .  A
C2175      C2180   1.402       .  A
C2175      H2185   1.084       .  S
C2176      C2181   1.477       .  S
C2176      C2177   1.410       .  A
C2177      C2178   1.405       .  A
C2177      C2182   1.506       .  S
C2178      C2179   1.405       .  A
C2178      H2183   1.084       .  S
C2179      C2180   1.418       .  A
C2180      C2184   1.509       .  S
C2181      C2186   1.407       .  A
C2181      C2190   1.398       .  A
C2182      H2198   1.110       .  S
C2182      H2199   1.110       .  S
C2182      H2200   1.111       .  S
C2184      H2195   1.111       .  S
C2184      H2196   1.111       .  S
C2184      H2197   1.109       .  S
C2186      C2187   1.402       .  A
C2186      C2191   1.506       .  S
C2187      C2188   1.409       .  A
C2187      H2192   1.084       .  S
C2189      C2193   1.508       .  S
C2191      H2201   1.111       .  S
C2191      H2202   1.110       .  S
C2191      H2203   1.110       .  S
C2193      H2204   1.105       .  S
C2193      H2205   1.104       .  S
C2193      H2206   1.111       .  S
C2207      C2208   1.399       .  A
C2207      C2212   1.400       .  A
C2207      H2217   1.085       .  S
C2208      C2213   1.484       .  S
C2208      C2209   1.411       .  A
C2209      C2210   1.409   1_655  A
C2209      C2214   1.504   1_655  S
C2210      C2211   1.407   1_455  A
C2211      C2212   1.415       .  A
C2212      C2216   1.505   1_545  S
C2213      C2218   1.412       .  A
C2213      C2222   1.404       .  A
C2214      H2230   1.110       .  S
C2214      H2231   1.111   1_455  S
C2214      H2232   1.111       .  S
C2216      H2227   1.111       .  S
C2216      H2228   1.106       .  S
C2216      H2229   1.110       .  S
C2218      C2219   1.402       .  A
C2218      C2223   1.506       .  S
C2219      C2220   1.402       .  A
C2219      H2224   1.084       .  S
C2220      C2221   1.413       .  A
C2221      C2222   1.408       .  A
C2221      C2225   1.506       .  S
C2222      H2226   1.084       .  S
C2223      H2234   1.109       .  S
C2225      H2236   1.111   1_655  S
C2225      H2237   1.110       .  S
C2225      H2238   1.110       .  S
C2239      C2240   1.401       .  A
C2239      C2244   1.403       .  A
C2239      H2249   1.084       .  S
C2240      C2245   1.482       .  S
C2240      C2241   1.409       .  A
C2241      C2242   1.404       .  A
C2241      C2246   1.506       .  S
C2242      C2243   1.406       .  A
C2242      H2247   1.079       .  S
C2243      C2244   1.414       .  A
C2244      C2248   1.503       .  S
C2245      C2250   1.409       .  A
C2245      C2254   1.399       .  A
C2246      H2262   1.110   1_655  S
C2246      H2263   1.109   1_655  S
C2246      H2264   1.111   1_655  S
C2248      H2259   1.110       .  S
C2248      H2260   1.110       .  S
C2248      H2261   1.105       .  S
C2250      C2251   1.403       .  A
C2250      C2255   1.508       .  S
C2251      C2252   1.408       .  A
C2251      H2256   1.084       .  S
C2252      C2253   1.423       .  A
C2253      C2254   1.408       .  A
C2254      H2258   1.084       .  S
C2255      H2265   1.111       .  S
C2255      H2266   1.110       .  S
C2255      H2267   1.110       .  S
C2257      H2268   1.110       .  S
C2257      H2269   1.108       .  S
C2257      H2270   1.111       .  S
C2271      C2272   1.401       .  A
C2271      C2276   1.409       .  A
C2271      H2281   1.084       .  S
C2272      C2277   1.480       .  S
C2272      C2273   1.406       .  A
C2273      C2274   1.399       .  A
C2273      C2278   1.508       .  S
C2274      C2275   1.412       .  A
C2274      H2279   1.083       .  S
C2275      C2276   1.422       .  A
C2276      C2280   1.506       .  S
C2277      C2282   1.408       .  A
C2277      C2286   1.394       .  A
C2278      H2294   1.110       .  S
C2278      H2295   1.110       .  S
C2278      H2296   1.111       .  S
C2280      H3293   1.108       .  S
C2280      H3294   1.111       .  S
C2280      H3295   1.110   1_545  S
C2282      C2283   1.406       .  A
C2282      C2287   1.505       .  S
C2283      C2284   1.411       .  A
C2283      H2288   1.083       .  S
C2284      C2285   1.425       .  A
C2285      C2286   1.400       .  A
C2285      C2289   1.506       .  S
C2286      H2290   1.085       .  S
C2287      H2297   1.111       .  S
C2287      H2298   1.110       .  S
C2287      H2299   1.110       .  S
C2289      H2300   1.111       .  S
C2289      H2301   1.102       .  S
C2289      H2302   1.104       .  S
H2291      C3282   1.109       .  S
H2292      C3282   1.111       .  S
H2293      C3282   1.110       .  S
C2303      C2304   1.399       .  A
C2303      C2308   1.400       .  A
C2303      H2313   1.084       .  S
C2304      C2309   1.474       .  S
C2304      C2305   1.411       .  A
C2305      C2306   1.402       .  A
C2305      C2310   1.507       .  S
C2306      C2307   1.403       .  A
C2306      H2311   1.084       .  S
C2307      C2308   1.414       .  A
C2308      C2312   1.506   1_655  S
C2309      C2314   1.408       .  A
C2309      C2318   1.399       .  A
C2310      H2326   1.110       .  S
C2310      H2327   1.110       .  S
C2310      H2328   1.111       .  S
C2312      H3325   1.105       .  S
C2312      H2324   1.111       .  S
C2312      H2325   1.111       .  S
C2314      C2315   1.399       .  A
C2314      C2319   1.506       .  S
C2315      C2316   1.402       .  A
C2315      H2320   1.077       .  S
C2316      C2317   1.412       .  A
C2317      C2318   1.402       .  A
C2317      C2321   1.499       .  S
C2318      H2322   1.084       .  S
C2319      H2329   1.111       .  S
C2319      H2330   1.110       .  S
C2319      H2331   1.110       .  S
C2321      H2332   1.111       .  S
C2321      H2333   1.110       .  S
C2321      H2334   1.106       .  S
H2323      C3314   1.108       .  S
C2335      C2336   1.402       .  A
C2336      C2341   1.496       .  S
C2336      C2337   1.415       .  A
C2337      C2338   1.405       .  A
C2337      C2342   1.508       .  S
C2338      C2339   1.408       .  A
C2338      H3345   1.083       .  S
C2340      C2344   1.502       .  S
C2341      C2346   1.419       .  A
C2341      C2350   1.400       .  A
C2342      H2358   1.107       .  S
C2342      H2359   1.110       .  S
C2342      H3362   1.111       .  S
H2343      C3340   1.083       .  S
C2344      H2355   1.111       .  S
C2344      H2356   1.105       .  S
C2344      H2357   1.103       .  S
C2346      C2347   1.410       .  A
C2346      C2351   1.508       .  S
C2347      C2348   1.402       .  A
C2347      H2352   1.084       .  S
C2348      C2349   1.417       .  A
C2349      C2350   1.401       .  A
C2349      C2353   1.501       .  S
C2350      H2354   1.083       .  S
C2351      H2361   1.111       .  S
C2351      H2362   1.108   1_655  S
C2351      H2363   1.111       .  S
C2353      H2364   1.110       .  S
C2353      H2365   1.110       .  S
C2353      H2366   1.097       .  S
H2360      C3344   1.111       .  S
C2367      C2368   1.404       .  A
C2367      C2372   1.402       .  A
C2367      H2377   1.084       .  S
C2368      C2373   1.498       .  S
C2368      C2369   1.417       .  A
C2369      C2370   1.403       .  A
C2369      C2374   1.509       .  S
C2370      C2371   1.408       .  A
C2370      H2375   1.081       .  S
C2371      C2372   1.425       .  A
C2372      C2376   1.507       .  S
C2373      C2378   1.418       .  A
C2373      C2382   1.407       .  A
C2374      H2390   1.107       .  S
C2374      H2391   1.110       .  S
C2374      H2392   1.111       .  S
C2376      H2387   1.110       .  S
C2376      H2388   1.111       .  S
C2376      H2389   1.101       .  S
C2378      C2379   1.400       .  A
C2378      C2383   1.507       .  S
C2379      C2380   1.402       .  A
C2379      H2384   1.085       .  S
C2380      C2381   1.415       .  A
C2381      C2382   1.402       .  A
C2381      C2385   1.506   1_545  S
C2382      H2386   1.084       .  S
C2383      H2393   1.110       .  S
C2383      H2394   1.111       .  S
C2383      H2395   1.108       .  S
C2385      H3398   1.110       .  S
C2385      H3399   1.110       .  S
C2385      H2398   1.100       .  S
H2396      C3387   1.110       .  S
H2397      C3387   1.099       .  S
C2399      C2400   1.406       .  A
C2399      C2404   1.406       .  A
C2399      H2409   1.083       .  S
C2400      C2405   1.497       .  S
C2400      C2401   1.418       .  A
C2401      C2402   1.405       .  A
C2401      C2406   1.509       .  S
C2402      C2403   1.401       .  A
C2402      H2407   1.084       .  S
C2403      C2404   1.413       .  A
C2404      C2408   1.505       .  S
C2405      C2410   1.419       .  A
C2405      C2414   1.400       .  A
C2406      H2423   1.111   1_655  S
C2406      H2424   1.111   1_655  S
C2408      H2419   1.106       .  S
C2408      H2420   1.110       .  S
C2408      H2421   1.110       .  S
C2410      C2411   1.411       .  A
C2410      C2415   1.508       .  S
C2411      C2412   1.405       .  A
C2411      H2416   1.084       .  S
C2413      C2417   1.504       .  S
C2414      H2418   1.084       .  S
C2415      H2425   1.111       .  S
C2415      H2426   1.107       .  S
C2415      H2427   1.111       .  S
C2417      H2428   1.110       .  S
C2417      H2429   1.100       .  S
C2417      H2430   1.111       .  S
C2431      C2432   1.402       .  A
C2431      C2436   1.407       .  A
C2431      H2441   1.084       .  S
C2432      C2437   1.482       .  S
C2432      C2433   1.409       .  A
C2433      C2434   1.400       .  A
C2433      C2438   1.507       .  S
C2434      C2435   1.400       .  A
C2434      H2439   1.076       .  S
C2435      C2436   1.417       .  A
C2436      C2440   1.506       .  S
C2437      C2442   1.411       .  A
C2437      C2446   1.401       .  A
C2438      H2454   1.110       .  S
C2438      H2455   1.110       .  S
C2438      H2456   1.111       .  S
C2440      H2451   1.110       .  S
C2440      H2452   1.110       .  S
C2440      H2453   1.106       .  S
C2442      C2443   1.406       .  A
C2442      C2447   1.505       .  S
C2443      C2444   1.404       .  A
C2443      H2448   1.084       .  S
C2444      C2445   1.414       .  A
C2445      C2446   1.403       .  A
C2445      C2449   1.507       .  S
C2446      H2450   1.085       .  S
C2447      H2457   1.111       .  S
C2447      H2458   1.110       .  S
C2447      H2459   1.110       .  S
C2449      H2460   1.110       .  S
C2449      H2461   1.108   1_556  S
C2449      H2462   1.110   1_556  S
C2463      C2464   1.401       .  A
C2463      C2468   1.399       .  A
C2463      H2473   1.085       .  S
C2464      C2469   1.476       .  S
C2464      C2465   1.410       .  A
C2465      C2466   1.400       .  A
C2465      C2470   1.506       .  S
C2466      C2467   1.402       .  A
C2466      H2471   1.083       .  S
C2467      C2468   1.412       .  A
C2468      C2472   1.503       .  S
C2469      C2474   1.410       .  A
C2469      C2478   1.397       .  A
C2470      H2486   1.109       .  S
C2470      H2487   1.110       .  S
C2470      H2488   1.111       .  S
C2472      H2483   1.110       .  S
C2472      H2484   1.110       .  S
C2472      H2485   1.106       .  S
C2474      C2475   1.405       .  A
C2474      C2479   1.507       .  S
C2475      C2476   1.408       .  A
C2475      H2480   1.084       .  S
C2476      C2477   1.422       .  A
C2477      C2478   1.397       .  A
C2478      H2482   1.085       .  S
C2479      H2489   1.111       .  S
C2479      H2490   1.109       .  S
C2479      H2491   1.111       .  S
C2481      H2493   1.110   1_455  S
C2481      H2494   1.111       .  S
C2495      C2496   1.403       .  A
C2495      C2500   1.407       .  A
C2495      H2505   1.084       .  S
C2496      C2501   1.486       .  S
C2496      C2497   1.410       .  A
C2497      C2498   1.403       .  A
C2497      C2502   1.506       .  S
C2498      C2499   1.405       .  A
C2498      H2503   1.084       .  S
C2499      C2500   1.416       .  A
C2500      C2504   1.506       .  S
C2501      C2506   1.411       .  A
C2501      C2510   1.398       .  A
C2502      H2518   1.110       .  S
C2502      H2519   1.110       .  S
C2502      H2520   1.111       .  S
C2504      H2515   1.110       .  S
C2504      H2516   1.110       .  S
C2504      H2517   1.106       .  S
C2506      C2507   1.408       .  A
C2506      C2511   1.505       .  S
C2507      C2508   1.409       .  A
C2508      C2509   1.423       .  A
C2509      C2510   1.404       .  A
C2509      C2513   1.509       .  S
C2510      H2514   1.084       .  S
C2511      H2522   1.110       .  S
C2511      H2523   1.110       .  S
C2513      H2524   1.109       .  S
C2513      H2525   1.110   1_556  S
C2513      H2526   1.111       .  S
C2527      C2528   1.400       .  A
C2527      C2532   1.405       .  A
C2527      H2537   1.084       .  S
C2528      C2533   1.482       .  S
C2528      C2529   1.409       .  A
C2529      C2530   1.402       .  A
C2529      C2534   1.509       .  S
C2530      C2531   1.409       .  A
C2530      H2535   1.082       .  S
C2531      C2532   1.419       .  A
C2532      C2536   1.503       .  S
C2533      C2538   1.410       .  A
C2533      C2542   1.402       .  A
C2534      H2550   1.110       .  S
C2534      H2551   1.105       .  S
C2534      H2552   1.110       .  S
C2536      H2547   1.105       .  S
C2536      H2548   1.111       .  S
C2536      H2549   1.105       .  S
C2538      C2539   1.403       .  A
C2538      C2543   1.510       .  S
C2539      C2540   1.403       .  A
C2539      H2544   1.076       .  S
C2540      C2541   1.415       .  A
C2541      C2542   1.403       .  A
C2542      H2546   1.085       .  S
C2543      H2553   1.110       .  S
C2543      H2554   1.110       .  S
C2543      H2555   1.105       .  S
C2545      H2556   1.110       .  S
C2545      H2557   1.098       .  S
C2545      H2558   1.110       .  S
C2559      C2560   1.401       .  A
C2560      C2565   1.495       .  S
C2560      C2561   1.411       .  A
C2561      C2562   1.404       .  A
C2561      C2566   1.505       .  S
C2562      C2563   1.411       .  A
C2562      H2567   1.082       .  S
C2564      C2568   1.504   1_455  S
C2565      C2570   1.416       .  A
C2565      C2574   1.405       .  A
C2566      H2582   1.107       .  S
C2566      H2583   1.109       .  S
C2566      H2584   1.110       .  S
C2568      H2579   1.111       .  S
C2568      H2580   1.109   1_655  S
C2568      H2581   1.097       .  S
C2570      C2571   1.402       .  A
C2570      C2575   1.509       .  S
C2571      C2572   1.400       .  A
C2571      H2576   1.078       .  S
C2572      C2573   1.414       .  A
C2573      C2574   1.406       .  A
C2573      C2577   1.505       .  S
C2574      H2578   1.082       .  S
C2575      H2585   1.111       .  S
C2575      H2586   1.108       .  S
C2575      H2587   1.110       .  S
C2577      H2588   1.109       .  S
C2577      H2589   1.106       .  S
C2577      H2590   1.110       .  S
C2591      C2592   1.400       .  A
C2591      C2596   1.405       .  A
C2591      H2601   1.084       .  S
C2592      C2597   1.480       .  S
C2592      C2593   1.409       .  A
C2593      C2594   1.401       .  A
C2593      C2598   1.508       .  S
C2594      C2595   1.408       .  A
C2594      H2599   1.083       .  S
C2595      C2596   1.420       .  A
C2596      C2600   1.508       .  S
C2597      C2602   1.409       .  A
C2597      C2606   1.401       .  A
C2598      H2614   1.110       .  S
C2598      H2615   1.107       .  S
C2598      H2616   1.111       .  S
C2600      H2611   1.111       .  S
C2600      H2612   1.107       .  S
C2600      H2613   1.105       .  S
C2602      C2603   1.400       .  A
C2602      C2607   1.509       .  S
C2603      C2604   1.407       .  A
C2603      H2608   1.083       .  S
C2604      C2605   1.418       .  A
C2605      C2606   1.405       .  A
C2605      C3611   1.505       .  S
C2606      H2610   1.085       .  S
C2607      H2617   1.111       .  S
C2607      H2618   1.110       .  S
C2607      H2619   1.108       .  S
C2609      H2620   1.110       .  S
C2609      H2621   1.107       .  S
C2609      H2622   1.110       .  S
C2609      C3607   1.507   1_545  S
C2623      C2624   1.404       .  A
C2623      C2628   1.409       .  A
C2623      H2633   1.084       .  S
C2624      C2629   1.492       .  S
C2624      C2625   1.411       .  A
C2625      C2626   1.406       .  A
C2625      C2630   1.506       .  S
C2626      C2627   1.404       .  A
C2626      H2631   1.079       .  S
C2627      C2628   1.416       .  A
C2628      C2632   1.505       .  S
C2629      C2634   1.412       .  A
C2629      C2638   1.401       .  A
C2630      H2646   1.110       .  S
C2630      H2647   1.110       .  S
C2630      H2648   1.111       .  S
C2632      H2643   1.110       .  S
C2632      H3646   1.110       .  S
C2632      H3647   1.106       .  S
C2634      C2635   1.411       .  A
C2634      C2639   1.506       .  S
C2635      C2636   1.408       .  A
C2635      H2640   1.084       .  S
C2636      C2637   1.421       .  A
C2637      C2638   1.408       .  A
C2637      C2641   1.509       .  S
C2638      H2642   1.084       .  S
C2639      H2649   1.111       .  S
C2639      H2650   1.110       .  S
C2639      H2651   1.110       .  S
C2641      H2652   1.109       .  S
C2641      H2653   1.110       .  S
C2641      H2654   1.111       .  S
H2644      C3634   1.110       .  S
H2645      C3634   1.104       .  S
C2655      C2656   1.400       .  A
C2655      C2660   1.405       .  A
C2655      H2665   1.084       .  S
C2656      C2661   1.482       .  S
C2656      C2657   1.412       .  A
C2657      C2658   1.403       .  A
C2657      C2662   1.503       .  S
C2658      C2659   1.403       .  A
C2658      H2663   1.084       .  S
C2659      C2660   1.420       .  A
C2660      C2664   1.508       .  S
C2661      C2666   1.409       .  A
C2661      C2670   1.394       .  A
C2662      H2678   1.109       .  S
C2662      H2679   1.108       .  S
C2662      H2680   1.111       .  S
C2664      H2675   1.111       .  S
C2664      H2676   1.109       .  S
C2664      H2677   1.110       .  S
C2667      H2672   1.084   1_455  S
C2668      C2669   1.423       .  A
C2669      C2670   1.396       .  A
C2669      C2673   1.500       .  S
C2670      H2674   1.086       .  S
C2671      H2681   1.111   1_455  S
C2671      H2682   1.110   1_455  S
C2673      H2684   1.110       .  S
C2673      H2685   1.087       .  S
C2673      H2686   1.111       .  S
C2687      C2688   1.399       .  A
C2687      C2692   1.402       .  A
C2687      H2697   1.084       .  S
C2688      C2693   1.471       .  S
C2688      C2689   1.409       .  A
C2689      C2690   1.400       .  A
C2689      C2694   1.508       .  S
C2690      C2691   1.404       .  A
C2690      H2695   1.084       .  S
C2691      C2692   1.417       .  A
C2692      C2696   1.509       .  S
C2693      C2698   1.407       .  A
C2693      C2702   1.397       .  A
C2694      H2710   1.110       .  S
C2694      H2711   1.110       .  S
C2694      H2712   1.111       .  S
C2696      H2707   1.110       .  S
C2696      H2708   1.111       .  S
C2696      H2709   1.111       .  S
C2699      H2704   1.082       .  S
C2700      C2701   1.419       .  A
C2701      C2702   1.397       .  A
C2701      C3707   1.508       .  S
C2702      H2706   1.085       .  S
C2703      H2713   1.111       .  S
C2703      H2714   1.110       .  S
C2703      H2715   1.110       .  S
C2705      H2716   1.110       .  S
C2705      H2717   1.107       .  S
C2705      H2718   1.110       .  S
C2705      C3703   1.507   1_545  S
C2719      C2720   1.397       .  A
C2719      C2724   1.397       .  A
C2719      H2729   1.085       .  S
C2720      C2725   1.476       .  S
C2720      C2721   1.408       .  A
C2721      C2722   1.405       .  A
C2721      C2726   1.505       .  S
C2722      C2723   1.406       .  A
C2722      H2727   1.080       .  S
C2723      C2724   1.417       .  A
C2724      C2728   1.502       .  S
C2725      C2730   1.409       .  A
C2725      C2734   1.401       .  A
C2726      H2742   1.110       .  S
C2726      H2743   1.109       .  S
C2726      H2744   1.111       .  S
C2728      H2739   1.110       .  S
C2728      H2740   1.110       .  S
C2728      H2741   1.101       .  S
C2730      C2731   1.398       .  A
C2730      C2735   1.509       .  S
C2731      C2732   1.405       .  A
C2731      H2736   1.084       .  S
C2732      C2733   1.419       .  A
C2733      C2734   1.407       .  A
C2733      C2737   1.508       .  S
C2734      H2738   1.084       .  S
C2735      H2745   1.111       .  S
C2735      H2746   1.110       .  S
C2735      H2747   1.109       .  S
C2737      H2748   1.111       .  S
C2737      H2749   1.110       .  S
C2737      H2750   1.111       .  S
C2751      C2756   1.404       .  A
C2752      C2757   1.486       .  S
C2753      C2754   1.408       .  A
C2753      C2758   1.506       .  S
C2754      C2755   1.407       .  A
C2754      H2759   1.084       .  S
C2755      C2756   1.420       .  A
C2756      C2760   1.509       .  S
C2757      C2762   1.409       .  A
C2757      C2766   1.403       .  A
C2758      H2774   1.110       .  S
C2758      H2776   1.111       .  S
C2760      H2771   1.111       .  S
C2760      H2772   1.111   1_655  S
C2760      H2773   1.109       .  S
C2762      C2763   1.401       .  A
C2762      C2767   1.507       .  S
C2763      C2764   1.406       .  A
C2763      H2768   1.080       .  S
C2764      C2765   1.419       .  A
C2765      C2766   1.408       .  A
C2765      C2769   1.507       .  S
C2767      H2777   1.111       .  S
C2767      H2778   1.110       .  S
C2767      H2779   1.110       .  S
C2769      H2780   1.111       .  S
C2769      H2781   1.107       .  S
C2769      H2782   1.111       .  S
C2783      C2784   1.399       .  A
C2783      C3790   1.403       .  A
C2783      H2793   1.084       .  S
C2784      C2789   1.476       .  S
C2784      C3787   1.411       .  A
C2785      C3786   1.413       .  A
C2785      C2786   1.404       .  A
C2785      C2790   1.506       .  S
C2786      C2787   1.403       .  A
C2786      H2791   1.084       .  S
C2787      C2788   1.418       .  A
C2788      C3785   1.404       .  A
C2788      C2792   1.508       .  S
C2789      C2794   1.407       .  A
C2789      C2798   1.395       .  A
C2790      H2806   1.109       .  S
C2790      H2807   1.110       .  S
C2790      H2808   1.111       .  S
C2792      H3805   1.111       .  S
C2792      H2804   1.111       .  S
C2792      H2805   1.109       .  S
C2794      C2795   1.405       .  A
C2794      C2799   1.504       .  S
C2795      C2796   1.409       .  A
C2795      H2800   1.084       .  S
C2796      C2797   1.422       .  A
C2797      C2798   1.396       .  A
C2797      C2801   1.503       .  S
C2798      H2802   1.085       .  S
C2799      H2809   1.111       .  S
C2799      H2810   1.110       .  S
C2799      H2811   1.110       .  S
C2801      H2812   1.110       .  S
C2801      H2813   1.093       .  S
C2801      H2814   1.111       .  S
H2803      C3794   1.110       .  S
C2815      C2816   1.401       .  A
C2815      C2820   1.408       .  A
C2815      H2825   1.085       .  S
C2816      C2821   1.481       .  S
C2816      C2817   1.407       .  A
C2817      C2818   1.401       .  A
C2817      C2822   1.508       .  S
C2818      C2819   1.409       .  A
C2818      H2823   1.084       .  S
C2819      C2820   1.424       .  A
C2820      C2824   1.509       .  S
C2821      C2826   1.411       .  A
C2821      C2830   1.396       .  A
C2822      H2838   1.110       .  S
C2822      H2839   1.110       .  S
C2822      H2840   1.111       .  S
C2824      H2835   1.111       .  S
C2824      H2836   1.110       .  S
C2824      H2837   1.103       .  S
C2826      C2827   1.407       .  A
C2826      C2831   1.504       .  S
C2827      C2828   1.405       .  A
C2827      H2832   1.084       .  S
C2828      C2829   1.418       .  A
C2829      C2830   1.400       .  A
C2829      C2833   1.502       .  S
C2830      H2834   1.084       .  S
C2831      H2841   1.111       .  S
C2831      H2842   1.110       .  S
C2831      H2843   1.110       .  S
C2833      H2844   1.111       .  S
C2833      H2845   1.109       .  S
C2833      H2846   1.106       .  S
C2847      C2848   1.399       .  A
C2847      C2852   1.400       .  A
C2847      H2857   1.085       .  S
C2848      C2853   1.482   1_655  S
C2848      C2849   1.409       .  A
C2849      C2850   1.405       .  A
C2849      C2854   1.505       .  S
C2850      C2851   1.409       .  A
C2850      H2855   1.083       .  S
C2851      C2852   1.418       .  A
C2852      C2856   1.502       .  S
C2853      C2858   1.412       .  A
C2854      H2871   1.110       .  S
C2854      H2872   1.111       .  S
C2856      H2867   1.110       .  S
C2856      H2868   1.111       .  S
C2856      H2869   1.096       .  S
C2858      C2863   1.506   1_455  S
C2859      C2860   1.403       .  A
C2859      H2864   1.084       .  S
C2860      C2861   1.417       .  A
C2861      C2862   1.401       .  A
C2861      C2865   1.508       .  S
C2862      H2866   1.085       .  S
C2863      H2873   1.111       .  S
C2863      H2874   1.110       .  S
C2863      H2875   1.110       .  S
C2865      H2876   1.111       .  S
C2865      H2877   1.104       .  S
C2865      H2878   1.110       .  S
C2879      C2880   1.398   1_545  A
C2879      C3886   1.401   1_545  A
C2879      H2889   1.085       .  S
C2880      C2885   1.478   1_565  S
C2880      C3883   1.408       .  A
C2881      C3882   1.406       .  A
C2881      C2882   1.404       .  A
C2881      C2886   1.506       .  S
C2882      C2883   1.411       .  A
C2882      H2887   1.084       .  S
C2883      C2884   1.421       .  A
C2884      C3881   1.401       .  A
C2884      C2888   1.509       .  S
C2885      C2890   1.410       .  A
C2885      C2894   1.396       .  A
C2886      H2902   1.110       .  S
C2886      H2903   1.110       .  S
C2886      H2904   1.111       .  S
C2888      H3901   1.111       .  S
C2888      H3902   1.110       .  S
C2888      H2901   1.109       .  S
C2890      C2891   1.405       .  A
C2890      C2895   1.505       .  S
C2891      C2892   1.405       .  A
C2891      H2896   1.084       .  S
C2892      C2893   1.420       .  A
C2893      C2894   1.398       .  A
C2893      C2897   1.503       .  S
C2894      H2898   1.085       .  S
C2895      H2905   1.111       .  S
C2895      H2906   1.110       .  S
C2895      H2907   1.110       .  S
C2897      H2908   1.111       .  S
C2897      H2909   1.101       .  S
C2897      H2910   1.109       .  S
H2899      C3890   1.111   1_545  S
H2900      C3890   1.111       .  S
C2911      C2912   1.398       .  A
C2911      C2916   1.406       .  A
C2911      H2921   1.085       .  S
C2912      C2917   1.486       .  S
C2912      C2913   1.409       .  A
C2913      C2914   1.404       .  A
C2913      C2918   1.510       .  S
C2914      C2915   1.412       .  A
C2914      H2919   1.081       .  S
C2915      C2916   1.426       .  A
C2916      C2920   1.504       .  S
C2917      C2922   1.412       .  A
C2917      C2926   1.403       .  A
C2918      H2934   1.110       .  S
C2918      H2935   1.105       .  S
C2918      H2936   1.111       .  S
C2920      H2931   1.111       .  S
C2920      H2932   1.100       .  S
C2920      H2933   1.107       .  S
C2922      C2923   1.404       .  A
C2922      C2927   1.509       .  S
C2923      C2924   1.402       .  A
C2923      H2928   1.081       .  S
C2924      C2925   1.415       .  A
C2925      C2926   1.405       .  A
C2925      C2929   1.501       .  S
C2926      H2930   1.085       .  S
C2927      H2937   1.111       .  S
C2927      H2938   1.110       .  S
C2927      H2939   1.105       .  S
C2929      H2940   1.110       .  S
C2929      H2941   1.098       .  S
C2929      H2942   1.110       .  S
C2943      C2944   1.404       .  A
C2943      C2948   1.403       .  A
C2943      H3955   1.084       .  S
C2944      C3951   1.510       .  S
C2944      C2945   1.424       .  A
C2945      C2946   1.412       .  A
C2945      C2950   1.510       .  S
C2946      C2947   1.406       .  A
C2946      H2951   1.079       .  S
C2947      C2948   1.422       .  A
C2948      C2952   1.505       .  S
C2949      C3946   1.507   1_545  S
C2949      C2954   1.424       .  A
C2949      C2958   1.407       .  A
C2950      H2966   1.106       .  S
C2950      H2967   1.110       .  S
C2950      H2968   1.111       .  S
C2952      H2963   1.111       .  S
C2952      H2964   1.109       .  S
C2952      H2965   1.103       .  S
H2953      C3945   1.084   1_545  S
C2954      C2955   1.408       .  A
C2954      C2959   1.509       .  S
C2955      C2956   1.401       .  A
C2955      H2960   1.085       .  S
C2956      C2957   1.416       .  A
C2957      C2958   1.405       .  A
C2957      C2961   1.508       .  S
C2958      H2962   1.084       .  S
C2959      H2969   1.111       .  S
C2959      H3972   1.110       .  S
C2959      H3973   1.106       .  S
C2961      H2972   1.110       .  S
C2961      H2973   1.108       .  S
C2961      H2974   1.110       .  S
H2970      C3961   1.110       .  S
H2971      C3961   1.107       .  S
C2975      C2976   1.400       .  A
C2975      C2980   1.401       .  A
C2976      C2977   1.412       .  A
C2977      C2978   1.405       .  A
C2977      C2982   1.507       .  S
C2978      C2979   1.404       .  A
C2978      H2983   1.084       .  S
C2979      C2980   1.417       .  A
C2980      C2984   1.506       .  S
C2981      C2986   1.411       .  A
C2981      C2990   1.395       .  A
C2982      H2998   1.110       .  S
C2982      H2999   1.107       .  S
C2982      H3000   1.111       .  S
C2984      H2995   1.110       .  S
C2984      H2996   1.111       .  S
C2984      H2997   1.102       .  S
C2986      C2987   1.408       .  A
C2986      C2991   1.507       .  S
C2987      C2988   1.407       .  A
C2987      H2992   1.080       .  S
C2988      C2989   1.426       .  A
C2989      C2990   1.397       .  A
C2989      C2993   1.508       .  S
C2990      H2994   1.085       .  S
C2991      H3001   1.111       .  S
C2991      H3002   1.111       .  S
C2991      H3003   1.107       .  S
C2993      H3004   1.111       .  S
C2993      H3005   1.101       .  S
C2993      H3006   1.110       .  S
C3007      H3008   1.103       .  S
C3007      C3013   1.547       .  S
C3007      C3012   1.554       .  S
C3007      C3011   1.546       .  S
C3009      H3010   1.110       .  S
C3009      C3015   1.532       .  S
C3009      C3014   1.538       .  S
C3009      C3016   1.534       .  S
C3011      C3014   1.378       .  D
C3011      C3981   1.497       .  S
C3012      C3015   1.386       .  D
C3012      C3917   1.507       .  S
C3013      C3016   1.369       .  D
C3013      C3958   1.496       .  S
C3014      C3853   1.497       .  S
C3015      C3830   1.499       .  S
C3016      C3894   1.485       .  S
C3017      H3018   1.110       .  S
C3017      C3023   1.521       .  S
C3017      C3022   1.537       .  S
C3017      C3021   1.549       .  S
C3019      H3020   1.109       .  S
C3019      C3025   1.562       .  S
C3019      C3024   1.533       .  S
C3019      C3026   1.560       .  S
C3021      C3024   1.371       .  D
C3021      C3725   1.489       .  S
C3022      C3025   1.389       .  D
C3022      C3798   1.503       .  S
C3023      C3026   1.376       .  D
C3023      C3766   1.494       .  S
C3024      C3926   1.493       .  S
C3025      C3949   1.519       .  S
C3026      C3990   1.502       .  S
O3027     Ni3033   1.942       .  S
O3027      C3048   1.273       .  A
O3028     Ni3051   1.923       .  S
O3028      C3037   1.270       .  A
O3029     Ni3033   1.913       .  S
O3029     Ni3051   1.920       .  S
O3029     Ni3045   1.915       .  S
O3029      H3052   0.966       .  S
C3030      O3047   1.273       .  A
C3030      O3039   1.277       .  A
C3030      C3693   1.478       .  S
O3031     Ni3050   1.913       .  S
O3031      C3037   1.265       .  A
O3032     Ni3050   1.909       .  S
O3032      C3034   1.267       .  A
Ni3033     O3036   1.937       .  S
Ni3033     O3038   1.905       .  S
C3034      O3044   1.271       .  A
C3034      C3638   1.481       .  S
O3035     Ni3051   1.918       .  S
O3035      C3041   1.276       .  A
O3036      C3041   1.279       .  A
C3037      C3885   1.489       .  S
O3038      C3040   1.267       .  A
O3039     Ni3050   1.921       .  S
C3040      O3046   1.271       .  A
C3040      C3862   1.469       .  S
C3041      C3821   1.498       .  S
H3042      O3043   0.966       .  S
O3043     Ni3051   1.915       .  S
O3043     Ni3045   1.894       .  S
O3043     Ni3050   1.904       .  S
O3044     Ni3045   1.929       .  S
Ni3045     O3049   1.896       .  S
Ni3045     O3047   1.911       .  S
O3046     Ni3051   1.928       .  S
C3048      O3049   1.264       .  A
C3048      C3661   1.484       .  S
C3053      H3054   1.110       .  S
C3053      C3058   1.542   1_655  S
C3055      H3056   1.093       .  S
C3055      C3061   1.562   1_655  S
C3057      C3060   1.367       .  D
C3058      C3061   1.400       .  D
C3059      C3062   1.367       .  D
C3059      C3629   1.488       .  S
C3062      C3606   1.484       .  S
C3063      H3064   1.102       .  S
C3063      C3069   1.555       .  S
C3063      C3068   1.542       .  S
C3063      C3067   1.540       .  S
C3065      H3066   1.112       .  S
C3065      C3071   1.529       .  S
C3065      C3070   1.525       .  S
C3065      C3072   1.528       .  S
C3067      C3070   1.365       .  D
C3067      C3574   1.488       .  S
C3068      C3071   1.376       .  D
C3068      C3597   1.492       .  S
C3069      C3072   1.384       .  D
C3069      C3533   1.503       .  S
C3070      C3469   1.471       .  S
C3071      C3437   1.484       .  S
C3072      C3501   1.487       .  S
C3073      H3074   1.109       .  S
C3073      C3079   1.545       .  S
C3073      C3078   1.556       .  S
C3073      C3077   1.535       .  S
C3075      H3076   1.107       .  S
C3075      C3081   1.541       .  S
C3075      C3080   1.542       .  S
C3075      C3082   1.530       .  S
C3077      C3080   1.372       .  D
C3077      C3350   1.487       .  S
C3078      C3081   1.391       .  D
C3078      C3373   1.512       .  S
C3079      C3082   1.366       .  D
C3079      C3405   1.489       .  S
C3080      C3318   1.492       .  S
C3081      C3286   1.498       .  S
C3082      C3245   1.487       .  S
C3083      H3084   1.107   1_545  S
C3083      C3089   1.549   1_545  S
C3085      H3086   1.106       .  S
C3085      C3092   1.535   1_545  S
C3087      C3090   1.373       .  D
C3087      C3382   1.491       .  S
C3088      C3091   1.380       .  D
C3089      C3092   1.381       .  D
C3090      C3158   1.487       .  S
O3093     Ni3099   1.936       .  S
O3093      C3114   1.273       .  A
O3094     Ni3117   1.904       .  S
O3094      C3103   1.264       .  A
O3095     Ni3099   1.916       .  S
O3095     Ni3117   1.910       .  S
O3095     Ni3111   1.914       .  S
O3095      H3118   0.966       .  S
C3096      O3113   1.272       .  A
C3096      O3105   1.275       .  A
C3096      C3734   1.481       .  S
O3097     Ni3116   1.918       .  S
O3097      C3103   1.266       .  A
O3098     Ni3116   1.906       .  S
O3098      C3100   1.268       .  A
Ni3099     O3102   1.939       .  S
Ni3099     O3104   1.905       .  S
C3100      O3110   1.274       .  A
C3100      C3757   1.483       .  S
O3101     Ni3117   1.908       .  S
O3101      C3107   1.271       .  A
O3102      C3107   1.277       .  A
C3103      C3181   1.472       .  S
O3104      C3106   1.268       .  A
O3105     Ni3116   1.919       .  S
C3106      O3112   1.269       .  A
C3106      C3149   1.494       .  S
C3107      C3222   1.479       .  S
H3108      O3109   0.966       .  S
O3109     Ni3117   1.915       .  S
O3109     Ni3111   1.906       .  S
O3109     Ni3116   1.912       .  S
O3110     Ni3111   1.934       .  S
Ni3111     O3115   1.897       .  S
Ni3111     O3113   1.915       .  S
O3112     Ni3117   1.930       .  S
C3114      O3115   1.266       .  A
C3114      C3789   1.480       .  S
O3119     Ni3125   1.907   1_556  S
O3119      C3140   1.261       .  A
O3120      C3129   1.267       .  A
O3121     Ni3125   1.890       .  S
O3121      H3144   0.966       .  S
C3122      O3139   1.275       .  A
C3122      O3131   1.277   1_556  A
C3122      C3446   1.477       .  S
O3123     Ni3142   1.923       .  S
O3123      C3129   1.271       .  A
O3124     Ni3142   1.907   1_556  S
Ni3125     O3128   1.910       .  S
Ni3125     O3130   1.897       .  S
C3126      O3136   1.273       .  A
C3126      C3510   1.484       .  S
O3127      C3133   1.285       .  A
O3128      C3133   1.279       .  A
C3129      C3254   1.488       .  S
O3131     Ni3142   1.924       .  S
C3132      O3138   1.268   1_455  A
C3132      C3309   1.469   1_455  S
C3133      C3277   1.499       .  S
H3134      O3135   0.966       .  S
O3135     Ni3142   1.904       .  S
C3140      O3141   1.269       .  A
C3140      C3478   1.483       .  S
C3145      C3146   1.397       .  A
C3145      C3150   1.406       .  A
C3145      H3155   1.084       .  S
C3146      C3151   1.477       .  S
C3146      C3147   1.408       .  A
C3147      C3148   1.401       .  A
C3147      C3152   1.508       .  S
C3148      C3149   1.409       .  A
C3148      H3153   1.084       .  S
C3149      C3150   1.426       .  A
C3150      C3154   1.509       .  S
C3151      C3156   1.408       .  A
C3151      C3160   1.398       .  A
C3152      H3169   1.110       .  S
C3154      H3165   1.111       .  S
C3154      H3166   1.110       .  S
C3154      H3167   1.110       .  S
C3156      C3157   1.404       .  A
C3156      C3161   1.505       .  S
C3157      C3158   1.405       .  A
C3157      H3162   1.084       .  S
C3158      C3159   1.419       .  A
C3159      C3160   1.399       .  A
C3159      C3163   1.504       .  S
C3160      H3164   1.085       .  S
C3161      H3171   1.111       .  S
C3161      H3172   1.110       .  S
C3161      H3173   1.110       .  S
C3163      H3174   1.110       .  S
C3163      H3175   1.100       .  S
C3177      C3178   1.398       .  A
C3177      C3182   1.400       .  A
C3177      H3187   1.084       .  S
C3178      C3183   1.474       .  S
C3178      C3179   1.410       .  A
C3179      C3180   1.403       .  A
C3179      C3184   1.506       .  S
C3180      C3181   1.404       .  A
C3180      H3185   1.084       .  S
C3181      C3182   1.416       .  A
C3182      C3186   1.509       .  S
C3183      C3188   1.407       .  A
C3183      C3192   1.396       .  A
C3184      H3200   1.110       .  S
C3184      H3201   1.110       .  S
C3184      H3202   1.111       .  S
C3186      H3197   1.111       .  S
C3186      H3198   1.111       .  S
C3186      H3199   1.109       .  S
C3188      C3189   1.402       .  A
C3188      C3193   1.505       .  S
C3189      C3190   1.408       .  A
C3189      H3194   1.084       .  S
C3191      C3195   1.508       .  S
C3193      H3203   1.111       .  S
C3193      H3204   1.110       .  S
C3193      H3205   1.110       .  S
C3195      H3206   1.105       .  S
C3195      H3207   1.102       .  S
C3195      H3208   1.111       .  S
C3209      C3210   1.399       .  A
C3209      C3214   1.399       .  A
C3209      H3219   1.085       .  S
C3210      C3215   1.487       .  S
C3210      C3211   1.413       .  A
C3211      C3212   1.410   1_655  A
C3211      C3216   1.505       .  S
C3212      C3213   1.407   1_455  A
C3213      C3214   1.416       .  A
C3214      C3218   1.504       .  S
C3215      C3220   1.414       .  A
C3215      C3224   1.404       .  A
C3216      H3232   1.109   1_655  S
C3216      H3233   1.111       .  S
C3216      H3234   1.111   1_655  S
C3218      H3229   1.111       .  S
C3218      H3230   1.106       .  S
C3218      H3231   1.110       .  S
C3220      C3221   1.402       .  A
C3220      C3225   1.506       .  S
C3221      C3222   1.402       .  A
C3221      H3226   1.084       .  S
C3222      C3223   1.414       .  A
C3223      C3224   1.407       .  A
C3223      C3227   1.506       .  S
C3224      H3228   1.084       .  S
C3225      H3236   1.109       .  S
C3227      H3238   1.111   1_655  S
C3227      H3239   1.110       .  S
C3227      H3240   1.110       .  S
C3241      C3242   1.398       .  A
C3241      C3246   1.400       .  A
C3241      H3251   1.084       .  S
C3242      C3247   1.472       .  S
C3242      C3243   1.407       .  A
C3243      C3244   1.400       .  A
C3243      C3248   1.506       .  S
C3244      C3245   1.404       .  A
C3244      H3249   1.079       .  S
C3245      C3246   1.413       .  A
C3246      C3250   1.501       .  S
C3247      C3252   1.408       .  A
C3247      C3256   1.397       .  A
C3248      H3264   1.110   1_655  S
C3248      H3265   1.110   1_655  S
C3248      H3266   1.111   1_655  S
C3250      H3261   1.105       .  S
C3250      H3262   1.111       .  S
C3250      H3263   1.108       .  S
C3252      C3253   1.398       .  A
C3252      C3257   1.509       .  S
C3253      C3254   1.408       .  A
C3253      H3258   1.084       .  S
C3254      C3255   1.422       .  A
C3255      C3256   1.404       .  A
C3256      H3260   1.084       .  S
C3257      H3267   1.111       .  S
C3257      H3268   1.110       .  S
C3257      H3269   1.110       .  S
C3259      H3270   1.110       .  S
C3259      H3271   1.106       .  S
C3259      H3272   1.111       .  S
C3273      C3274   1.400       .  A
C3273      C3278   1.408       .  A
C3273      H3283   1.084       .  S
C3274      C3279   1.477       .  S
C3274      C3275   1.404       .  A
C3275      C3276   1.399       .  A
C3275      C3280   1.508       .  S
C3276      C3277   1.415       .  A
C3276      H3281   1.083       .  S
C3277      C3278   1.423       .  A
C3278      C3282   1.507       .  S
C3279      C3284   1.409       .  A
C3279      C3288   1.395       .  A
C3280      H3296   1.110       .  S
C3280      H3297   1.110       .  S
C3280      H3298   1.111       .  S
C3284      C3285   1.404       .  A
C3284      C3289   1.505       .  S
C3285      C3286   1.408       .  A
C3285      H3290   1.084       .  S
C3286      C3287   1.424       .  A
C3287      C3288   1.400       .  A
C3287      C3291   1.507       .  S
C3288      H3292   1.085       .  S
C3289      H3299   1.111       .  S
C3289      H3300   1.110       .  S
C3289      H3301   1.110       .  S
C3291      H3302   1.111       .  S
C3291      H3303   1.103       .  S
C3291      H3304   1.104       .  S
C3305      C3306   1.402       .  A
C3305      C3310   1.404   1_655  A
C3305      H3315   1.084       .  S
C3306      C3311   1.479       .  S
C3306      C3307   1.412       .  A
C3307      C3308   1.403       .  A
C3307      C3312   1.507       .  S
C3308      C3309   1.401       .  A
C3308      H3313   1.084       .  S
C3309      C3310   1.412   1_655  A
C3310      C3314   1.507       .  S
C3311      C3316   1.408       .  A
C3311      C3320   1.400       .  A
C3312      H3328   1.110       .  S
C3312      H3329   1.110       .  S
C3312      H3330   1.111       .  S
C3314      H3326   1.111       .  S
C3314      H3327   1.111       .  S
C3316      C3317   1.401       .  A
C3316      C3321   1.506       .  S
C3317      C3318   1.403       .  A
C3317      H3322   1.077       .  S
C3318      C3319   1.413       .  A
C3319      C3320   1.404       .  A
C3319      C3323   1.499       .  S
C3320      H3324   1.084       .  S
C3321      H3331   1.111       .  S
C3321      H3332   1.110       .  S
C3321      H3333   1.110       .  S
C3323      H3334   1.111       .  S
C3323      H3335   1.110       .  S
C3323      H3336   1.107       .  S
C3337      C3338   1.400       .  A
C3338      C3343   1.489       .  S
C3338      C3339   1.413       .  A
C3339      C3340   1.402       .  A
C3339      C3344   1.508       .  S
C3340      C3341   1.407       .  A
C3342      C3346   1.501       .  S
C3343      C3348   1.418       .  A
C3343      C3352   1.399       .  A
C3344      H3360   1.107       .  S
C3344      H3361   1.110       .  S
C3346      H3357   1.111       .  S
C3346      H3358   1.105       .  S
C3346      H3359   1.103       .  S
C3348      C3349   1.408       .  A
C3348      C3353   1.508       .  S
C3349      C3350   1.402       .  A
C3349      H3354   1.084       .  S
C3350      C3351   1.416       .  A
C3351      C3352   1.397       .  A
C3351      C3355   1.502       .  S
C3352      H3356   1.084       .  S
C3353      H3363   1.111   1_655  S
C3353      H3364   1.107   1_655  S
C3353      H3365   1.111       .  S
C3355      H3366   1.110       .  S
C3355      H3367   1.110       .  S
C3355      H3368   1.096       .  S
C3369      C3370   1.405       .  A
C3369      C3374   1.401       .  A
C3369      H3379   1.084       .  S
C3370      C3375   1.500       .  S
C3370      C3371   1.418       .  A
C3371      C3372   1.403       .  A
C3371      C3376   1.509       .  S
C3372      C3373   1.409       .  A
C3372      H3377   1.081       .  S
C3373      C3374   1.424       .  A
C3374      C3378   1.506       .  S
C3375      C3380   1.419       .  A
C3375      C3384   1.408       .  A
C3376      H3392   1.107       .  S
C3376      H3393   1.110       .  S
C3376      H3394   1.111       .  S
C3378      H3389   1.110       .  S
C3378      H3390   1.111       .  S
C3378      H3391   1.100       .  S
C3380      C3381   1.402       .  A
C3380      C3385   1.508       .  S
C3381      C3382   1.404       .  A
C3381      H3386   1.084       .  S
C3382      C3383   1.415       .  A
C3383      C3384   1.401       .  A
C3383      C3387   1.505       .  S
C3384      H3388   1.084       .  S
C3385      H3395   1.110       .  S
C3385      H3396   1.111       .  S
C3385      H3397   1.107       .  S
C3387      H3400   1.110       .  S
C3401      C3402   1.406       .  A
C3401      C3406   1.407       .  A
C3401      H3411   1.083       .  S
C3402      C3407   1.498       .  S
C3402      C3403   1.419       .  A
C3403      C3404   1.404       .  A
C3403      C3408   1.510       .  S
C3404      C3405   1.401       .  A
C3404      H3409   1.084       .  S
C3405      C3406   1.414       .  A
C3406      C3410   1.505       .  S
C3407      C3412   1.419       .  A
C3407      C3416   1.400       .  A
C3408      H3425   1.111   1_655  S
C3408      H3426   1.111   1_655  S
C3410      H3421   1.106       .  S
C3410      H3422   1.110       .  S
C3410      H3423   1.110       .  S
C3412      C3413   1.412       .  A
C3412      C3417   1.508       .  S
C3413      C3414   1.406       .  A
C3413      H3418   1.084       .  S
C3415      C3419   1.504       .  S
C3416      H3420   1.084       .  S
C3417      H3427   1.111       .  S
C3417      H3428   1.107       .  S
C3417      H3429   1.111       .  S
C3419      H3430   1.110       .  S
C3419      H3431   1.100       .  S
C3419      H3432   1.111       .  S
C3433      C3434   1.403       .  A
C3433      C3438   1.405       .  A
C3433      H3443   1.084       .  S
C3434      C3439   1.483       .  S
C3434      C3435   1.412       .  A
C3435      C3436   1.400       .  A
C3435      C3440   1.508       .  S
C3436      C3437   1.400       .  A
C3436      H3441   1.081       .  S
C3437      C3438   1.415       .  A
C3438      C3442   1.506       .  S
C3439      C3444   1.411       .  A
C3439      C3448   1.401       .  A
C3440      H3456   1.109       .  S
C3440      H3457   1.111       .  S
C3440      H3458   1.111       .  S
C3442      H3453   1.110       .  S
C3442      H3454   1.110       .  S
C3442      H3455   1.107       .  S
C3444      C3445   1.404       .  A
C3444      C3449   1.505       .  S
C3445      C3446   1.405       .  A
C3445      H3450   1.084       .  S
C3446      C3447   1.417       .  A
C3447      C3448   1.402       .  A
C3447      C3451   1.508   1_556  S
C3448      H3452   1.085       .  S
C3449      H3459   1.111       .  S
C3449      H3460   1.109       .  S
C3449      H3461   1.108       .  S
C3451      H3462   1.111       .  S
C3451      H3463   1.107       .  S
C3451      H3464   1.110       .  S
C3465      C3466   1.400       .  A
C3465      C3470   1.398       .  A
C3465      H3475   1.085       .  S
C3466      C3471   1.467       .  S
C3466      C3467   1.407       .  A
C3467      C3468   1.397       .  A
C3467      C3472   1.506       .  S
C3468      C3469   1.400       .  A
C3468      H3473   1.081       .  S
C3469      C3470   1.412       .  A
C3470      C3474   1.504       .  S
C3471      C3476   1.406       .  A
C3471      C3480   1.393       .  A
C3472      H3488   1.110       .  S
C3472      H3489   1.110       .  S
C3472      H3490   1.111       .  S
C3474      H3485   1.110       .  S
C3474      H3486   1.111       .  S
C3474      H3487   1.106       .  S
C3476      C3477   1.404       .  A
C3476      C3481   1.506       .  S
C3477      C3478   1.409       .  A
C3477      H3482   1.084       .  S
C3478      C3479   1.426       .  A
C3479      C3480   1.395       .  A
C3480      H3484   1.085       .  S
C3481      H3491   1.111       .  S
C3481      H3492   1.110       .  S
C3481      H3493   1.110       .  S
C3483      H3495   1.110   1_556  S
C3483      H3496   1.111       .  S
C3497      C3498   1.405       .  A
C3497      C3502   1.408       .  A
C3497      H3507   1.084       .  S
C3498      C3503   1.484       .  S
C3498      C3499   1.409       .  A
C3499      C3500   1.399       .  A
C3499      C3504   1.507       .  S
C3500      C3501   1.403       .  A
C3500      H3505   1.083       .  S
C3501      C3502   1.415       .  A
C3502      C3506   1.506       .  S
C3503      C3508   1.410       .  A
C3503      C3512   1.401       .  A
C3504      H3520   1.110       .  S
C3504      H3521   1.110       .  S
C3504      H3522   1.111       .  S
C3506      H3517   1.110       .  S
C3506      H3518   1.111       .  S
C3506      H3519   1.107       .  S
C3508      C3509   1.406       .  A
C3508      C3513   1.505       .  S
C3509      C3510   1.406       .  A
C3510      C3511   1.418       .  A
C3511      C3512   1.405       .  A
C3511      C3515   1.508       .  S
C3512      H3516   1.084       .  S
C3513      H3524   1.110       .  S
C3513      H3525   1.109       .  S
C3515      H3526   1.109   1_556  S
C3515      H3527   1.111   1_556  S
C3515      H3528   1.111       .  S
C3529      C3530   1.403       .  A
C3529      C3534   1.408       .  A
C3529      H3539   1.084       .  S
C3530      C3535   1.488       .  S
C3530      C3531   1.411       .  A
C3531      C3532   1.400       .  A
C3531      C3536   1.511       .  S
C3532      C3533   1.408       .  A
C3532      H3537   1.080       .  S
C3533      C3534   1.420       .  A
C3534      C3538   1.505       .  S
C3535      C3540   1.414       .  A
C3535      C3544   1.404       .  A
C3536      H3552   1.110       .  S
C3536      H3553   1.104       .  S
C3536      H3554   1.110       .  S
C3538      H3549   1.104       .  S
C3538      H3550   1.111       .  S
C3538      H3551   1.106       .  S
C3540      C3541   1.404       .  A
C3540      C3545   1.511       .  S
C3541      C3542   1.402       .  A
C3541      H3546   1.082   1_565  S
C3542      C3543   1.414       .  A
C3543      C3544   1.404       .  A
C3544      H3548   1.084       .  S
C3545      H3555   1.111   1_565  S
C3545      H3556   1.110       .  S
C3545      H3557   1.104       .  S
C3547      H3558   1.111       .  S
C3547      H3559   1.104       .  S
C3547      H3560   1.110       .  S
C3561      C3562   1.399       .  A
C3562      C3567   1.494       .  S
C3562      C3563   1.408       .  A
C3563      C3564   1.405       .  A
C3563      C3568   1.505       .  S
C3564      C3565   1.414       .  A
C3564      H3569   1.080       .  S
C3566      C3570   1.504       .  S
C3567      C3572   1.416       .  A
C3567      C3576   1.405       .  A
C3568      H3584   1.107       .  S
C3568      H3585   1.109       .  S
C3568      H3586   1.109       .  S
C3570      H3581   1.111       .  S
C3570      H3582   1.110       .  S
C3570      H3583   1.098   1_455  S
C3572      C3573   1.402       .  A
C3572      C3577   1.509       .  S
C3573      C3574   1.400       .  A
C3573      H3578   1.082       .  S
C3574      C3575   1.415       .  A
C3575      C3576   1.406       .  A
C3575      C3579   1.505       .  S
C3576      H3580   1.082       .  S
C3577      H3587   1.111       .  S
C3577      H3588   1.108       .  S
C3577      H3589   1.111       .  S
C3579      H3590   1.110       .  S
C3579      H3591   1.104       .  S
C3579      H3592   1.110       .  S
C3593      C3594   1.401       .  A
C3593      C3598   1.403       .  A
C3593      H3603   1.084       .  S
C3594      C3599   1.480       .  S
C3594      C3595   1.410       .  A
C3595      C3596   1.400       .  A
C3595      C3600   1.510       .  S
C3596      C3597   1.407       .  A
C3596      H3601   1.082       .  S
C3597      C3598   1.417       .  A
C3598      C3602   1.509       .  S
C3599      C3604   1.412       .  A
C3599      C3608   1.402       .  A
C3600      H3616   1.110       .  S
C3600      H3617   1.105       .  S
C3600      H3618   1.111       .  S
C3602      H3613   1.111       .  S
C3602      H3614   1.109       .  S
C3602      H3615   1.105       .  S
C3604      C3605   1.402       .  A
C3604      C3609   1.511       .  S
C3605      C3606   1.403       .  A
C3605      H3610   1.078       .  S
C3606      C3607   1.416       .  A
C3607      C3608   1.401       .  A
C3608      H3612   1.085       .  S
C3609      H3619   1.111       .  S
C3609      H3620   1.110       .  S
C3609      H3621   1.105       .  S
C3611      H3622   1.110       .  S
C3611      H3623   1.106       .  S
C3611      H3624   1.109       .  S
C3625      C3626   1.402       .  A
C3625      C3630   1.405       .  A
C3625      H3635   1.084       .  S
C3626      C3631   1.486       .  S
C3626      C3627   1.411       .  A
C3627      C3628   1.406       .  A
C3627      C3632   1.506       .  S
C3628      C3629   1.404       .  A
C3628      H3633   1.082       .  S
C3629      C3630   1.414       .  A
C3630      C3634   1.505   1_565  S
C3631      C3636   1.413       .  A
C3631      C3640   1.402       .  A
C3632      H3648   1.110       .  S
C3632      H3649   1.108       .  S
C3632      H3650   1.111       .  S
C3634      H3645   1.110       .  S
C3636      C3637   1.408       .  A
C3636      C3641   1.507       .  S
C3637      C3638   1.405       .  A
C3637      H3642   1.084       .  S
C3638      C3639   1.415       .  A
C3639      C3640   1.405       .  A
C3639      C3643   1.508       .  S
C3640      H3644   1.084       .  S
C3641      H3651   1.111       .  S
C3641      H3652   1.110       .  S
C3641      H3653   1.109       .  S
C3643      H3654   1.109       .  S
C3643      H3655   1.111       .  S
C3643      H3656   1.111       .  S
C3657      C3658   1.401       .  A
C3657      C3662   1.405       .  A
C3657      H3667   1.084       .  S
C3658      C3663   1.481       .  S
C3658      C3659   1.411       .  A
C3659      C3660   1.403       .  A
C3659      C3664   1.503       .  S
C3660      C3661   1.404       .  A
C3660      H3665   1.084       .  S
C3661      C3662   1.418       .  A
C3662      C3666   1.507       .  S
C3663      C3668   1.408       .  A
C3663      C3672   1.393       .  A
C3664      H3680   1.107       .  S
C3664      H3681   1.109       .  S
C3664      H3682   1.111       .  S
C3666      H3677   1.111       .  S
C3666      H3678   1.109       .  S
C3666      H3679   1.110       .  S
C3669      H3674   1.084   1_455  S
C3670      C3671   1.423       .  A
C3671      C3672   1.395       .  A
C3671      C3675   1.500       .  S
C3672      H3676   1.086       .  S
C3673      H3683   1.111       .  S
C3673      H3684   1.110       .  S
C3675      H3686   1.111       .  S
C3675      H3687   1.088       .  S
C3675      H3688   1.110       .  S
C3689      C3690   1.398       .  A
C3689      C3694   1.402       .  A
C3689      H3699   1.084       .  S
C3690      C3695   1.472       .  S
C3690      C3691   1.409       .  A
C3691      C3692   1.401       .  A
C3691      C3696   1.508       .  S
C3692      C3693   1.406       .  A
C3692      H3697   1.084       .  S
C3693      C3694   1.419       .  A
C3694      C3698   1.509       .  S
C3695      C3700   1.408       .  A
C3695      C3704   1.397       .  A
C3696      H3712   1.110       .  S
C3696      H3713   1.109       .  S
C3696      H3714   1.111       .  S
C3698      H3709   1.110       .  S
C3698      H3710   1.111       .  S
C3698      H3711   1.111       .  S
C3701      H3706   1.081       .  S
C3702      C3703   1.418       .  A
C3703      C3704   1.396       .  A
C3704      H3708   1.085       .  S
C3705      H3715   1.111       .  S
C3705      H3716   1.110       .  S
C3705      H3717   1.109       .  S
C3707      H3718   1.110       .  S
C3707      H3719   1.109       .  S
C3707      H3720   1.109       .  S
C3721      C3722   1.397       .  A
C3721      C3726   1.397       .  A
C3721      H3731   1.085       .  S
C3722      C3727   1.478       .  S
C3722      C3723   1.408       .  A
C3723      C3724   1.406       .  A
C3723      C3728   1.504       .  S
C3724      C3725   1.405       .  A
C3724      H3729   1.082       .  S
C3725      C3726   1.419       .  A
C3726      C3730   1.501       .  S
C3727      C3732   1.410       .  A
C3727      C3736   1.401       .  A
C3728      H3744   1.110       .  S
C3728      H3745   1.110       .  S
C3728      H3746   1.111       .  S
C3730      H3741   1.110       .  S
C3730      H3742   1.109       .  S
C3730      H3743   1.099       .  S
C3732      C3733   1.400       .  A
C3732      C3737   1.508       .  S
C3733      C3734   1.404       .  A
C3733      H3738   1.084       .  S
C3734      C3735   1.418       .  A
C3735      C3736   1.407       .  A
C3735      C3739   1.508       .  S
C3736      H3740   1.084       .  S
C3737      H3747   1.111       .  S
C3737      H3748   1.110       .  S
C3737      H3749   1.110       .  S
C3739      H3750   1.111       .  S
C3739      H3751   1.110       .  S
C3739      H3752   1.111       .  S
C3753      C3758   1.405   1_455  A
C3754      C3759   1.487       .  S
C3755      C3756   1.408       .  A
C3755      C3760   1.506       .  S
C3756      C3757   1.405       .  A
C3756      H3761   1.084       .  S
C3757      C3758   1.417       .  A
C3758      C3762   1.509       .  S
C3759      C3764   1.410       .  A
C3759      C3768   1.403       .  A
C3760      H3776   1.110       .  S
C3760      H3778   1.111       .  S
C3762      H3773   1.111       .  S
C3762      H3774   1.111   1_655  S
C3762      H3775   1.109       .  S
C3764      C3765   1.404       .  A
C3764      C3769   1.506       .  S
C3765      C3766   1.406       .  A
C3765      H3770   1.082       .  S
C3766      C3767   1.417       .  A
C3767      C3768   1.406       .  A
C3767      C3771   1.507       .  S
C3769      H3779   1.111       .  S
C3769      H3780   1.110       .  S
C3769      H3781   1.110       .  S
C3771      H3782   1.111       .  S
C3771      H3783   1.106       .  S
C3771      H3784   1.110       .  S
C3785      C3786   1.400       .  A
C3785      H3795   1.084   1_545  S
C3786      C3791   1.480   1_545  S
C3787      C3788   1.403       .  A
C3787      C3792   1.507       .  S
C3788      C3789   1.404       .  A
C3788      H3793   1.084       .  S
C3789      C3790   1.418       .  A
C3790      C3794   1.509       .  S
C3791      C3796   1.408       .  A
C3791      C3800   1.394       .  A
C3792      H3808   1.110       .  S
C3792      H3809   1.110       .  S
C3792      H3810   1.111       .  S
C3794      H3806   1.111       .  S
C3794      H3807   1.109       .  S
C3796      C3797   1.408       .  A
C3796      C3801   1.504       .  S
C3797      C3798   1.411       .  A
C3797      H3802   1.084       .  S
C3798      C3799   1.424       .  A
C3799      C3800   1.397       .  A
C3799      C3803   1.502       .  S
C3800      H3804   1.086       .  S
C3801      H3811   1.111       .  S
C3801      H3812   1.110       .  S
C3801      H3813   1.110   1_565  S
C3803      H3814   1.110       .  S
C3803      H3815   1.090       .  S
C3803      H3816   1.111       .  S
C3817      C3818   1.402       .  A
C3817      C3822   1.410       .  A
C3817      H3827   1.084       .  S
C3818      C3823   1.487       .  S
C3818      C3819   1.409       .  A
C3819      C3820   1.404       .  A
C3819      C3824   1.508       .  S
C3820      C3821   1.410       .  A
C3820      H3825   1.084       .  S
C3821      C3822   1.422       .  A
C3822      C3826   1.508       .  S
C3823      C3828   1.413       .  A
C3823      C3832   1.397       .  A
C3824      H3840   1.110       .  S
C3824      H3841   1.109       .  S
C3824      H3842   1.111       .  S
C3826      H3837   1.111       .  S
C3826      H3838   1.110       .  S
C3826      H3839   1.110       .  S
C3828      C3829   1.410       .  A
C3828      C3833   1.505       .  S
C3829      C3830   1.406       .  A
C3829      H3834   1.084       .  S
C3830      C3831   1.418       .  A
C3831      C3832   1.402       .  A
C3831      C3835   1.503       .  S
C3832      H3836   1.084       .  S
C3833      H3843   1.111       .  S
C3833      H3844   1.110       .  S
C3833      H3845   1.109       .  S
C3835      H3846   1.111       .  S
C3835      H3847   1.109       .  S
C3835      H3848   1.106       .  S
C3849      C3850   1.397       .  A
C3849      C3854   1.398       .  A
C3849      H3859   1.085       .  S
C3850      C3855   1.477   1_655  S
C3850      C3851   1.408       .  A
C3851      C3852   1.403       .  A
C3851      C3856   1.506       .  S
C3852      C3853   1.409       .  A
C3852      H3857   1.083       .  S
C3853      C3854   1.420       .  A
C3854      C3858   1.502       .  S
C3855      C3860   1.411   1_455  A
C3856      H3873   1.110       .  S
C3856      H3874   1.111       .  S
C3858      H3869   1.110       .  S
C3858      H3870   1.111       .  S
C3858      H3871   1.094       .  S
C3860      C3865   1.506       .  S
C3861      C3862   1.403       .  A
C3861      H3866   1.084       .  S
C3862      C3863   1.416       .  A
C3863      C3864   1.399       .  A
C3863      C3867   1.508       .  S
C3864      H3868   1.085       .  S
C3865      H3875   1.111       .  S
C3865      H3876   1.110       .  S
C3865      H3877   1.111       .  S
C3867      H3878   1.111       .  S
C3867      H3879   1.104       .  S
C3867      H3880   1.110       .  S
C3881      C3882   1.398       .  A
C3881      H3891   1.085       .  S
C3882      C3887   1.474       .  S
C3883      C3884   1.407       .  A
C3883      C3888   1.506       .  S
C3884      C3885   1.410       .  A
C3884      H3889   1.084       .  S
C3885      C3886   1.422       .  A
C3886      C3890   1.510       .  S
C3887      C3892   1.410       .  A
C3887      C3896   1.395       .  A
C3888      H3904   1.110       .  S
C3888      H3905   1.110       .  S
C3888      H3906   1.111       .  S
C3890      H3903   1.109       .  S
C3892      C3893   1.403       .  A
C3892      C3897   1.505       .  S
C3893      C3894   1.403       .  A
C3893      H3898   1.084       .  S
C3894      C3895   1.420       .  A
C3895      C3896   1.397       .  A
C3895      C3899   1.503       .  S
C3896      H3900   1.085       .  S
C3897      H3907   1.111       .  S
C3897      H3908   1.110       .  S
C3897      H3909   1.110       .  S
C3899      H3910   1.111       .  S
C3899      H3911   1.100       .  S
C3899      H3912   1.108       .  S
C3913      C3914   1.400       .  A
C3913      C3918   1.406       .  A
C3913      H3923   1.085       .  S
C3914      C3919   1.481       .  S
C3914      C3915   1.408       .  A
C3915      C3916   1.401       .  A
C3915      C3920   1.509       .  S
C3916      C3917   1.410       .  A
C3916      H3921   1.081       .  S
C3917      C3918   1.423       .  A
C3918      C3922   1.505       .  S
C3919      C3924   1.411       .  A
C3919      C3928   1.400       .  A
C3920      H3936   1.110       .  S
C3920      H3937   1.105       .  S
C3920      H3938   1.111       .  S
C3922      H3933   1.111       .  S
C3922      H3934   1.101       .  S
C3922      H3935   1.107       .  S
C3924      C3925   1.404       .  A
C3924      C3929   1.509       .  S
C3925      C3926   1.403       .  A
C3925      H3930   1.079       .  S
C3926      C3927   1.415       .  A
C3927      C3928   1.401       .  A
C3927      C3931   1.499       .  S
C3928      H3932   1.085       .  S
C3929      H3939   1.111       .  S
C3929      H3940   1.110       .  S
C3929      H3941   1.105       .  S
C3931      H3942   1.110       .  S
C3931      H3943   1.096       .  S
C3931      H3944   1.111       .  S
C3945      C3946   1.402       .  A
C3945      C3950   1.403       .  A
C3946      C3947   1.422       .  A
C3947      C3948   1.411       .  A
C3947      C3952   1.509       .  S
C3948      C3949   1.409       .  A
C3948      H3953   1.081       .  S
C3949      C3950   1.425       .  A
C3950      C3954   1.503       .  S
C3951      C3956   1.426       .  A
C3951      C3960   1.407       .  A
C3952      H3968   1.110       .  S
C3952      H3969   1.107       .  S
C3952      H3970   1.111       .  S
C3954      H3965   1.111       .  S
C3954      H3966   1.107       .  S
C3954      H3967   1.097       .  S
C3956      C3957   1.409       .  A
C3956      C3961   1.510       .  S
C3957      C3958   1.401       .  A
C3957      H3962   1.085       .  S
C3958      C3959   1.416       .  A
C3959      C3960   1.405       .  A
C3959      C3963   1.508       .  S
C3960      H3964   1.081       .  S
C3961      H3971   1.110       .  S
C3963      H3974   1.110       .  S
C3963      H3975   1.108       .  S
C3963      H3976   1.110       .  S
C3977      C3978   1.401       .  A
C3977      C3982   1.403       .  A
C3978      C3979   1.412       .  A
C3979      C3980   1.407       .  A
C3979      C3984   1.507       .  S
C3980      C3981   1.406       .  A
C3980      H3985   1.084       .  S
C3981      C3982   1.419       .  A
C3982      C3986   1.506       .  S
C3983      C3988   1.413       .  A
C3983      C3992   1.396       .  A
C3984      H4000   1.111       .  S
C3984      H4001   1.107       .  S
C3984      H4002   1.111       .  S
C3986      H3997   1.110       .  S
C3986      H3998   1.110       .  S
C3986      H3999   1.101       .  S
C3988      C3989   1.411       .  A
C3988      C3993   1.507       .  S
C3989      C3990   1.407       .  A
C3989      H3994   1.082       .  S
C3990      C3991   1.425       .  A
C3991      C3992   1.399       .  A
C3991      C3995   1.508       .  S
C3992      H3996   1.085       .  S
C3993      H4003   1.111       .  S
C3993      H4004   1.111       .  S
C3993      H4005   1.107       .  S
C3995      H4006   1.111       .  S
C3995      H4007   1.103       .  S
C3995      H4008   1.110       .  S
