geometry optimzed in LAMMPS
_audit_creation_date              2020-11-30 
_audit_creation_method            'lammps2cif' 
_symmetry_space_group_name_H-M    'P1' 
_symmetry_Int_Tables_number       1 
_symmetry_cell_setting            triclinic 
loop_ 
_symmetry_equiv_pos_as_xyz 
  x,y,z 
_cell_length_a                    34.051087670693164 
_cell_length_b                    34.741837373510286 
_cell_length_c                    34.62937172586813 
_cell_angle_alpha                 91.01161812794747 
_cell_angle_beta                  89.88081258085292 
_cell_angle_gamma                 89.7619406371993 
loop_ 
_atom_site_label 
_atom_site_type_symbol 
_atom_site_fract_x 
_atom_site_fract_y 
_atom_site_fract_z 
_atom_site_charge 
O1          O  0.61557377  0.93536181  0.26794925    -0.85150
O2          O  0.45843938  0.09090943  0.25617254    -0.85310
O3          O  0.57376051  0.04460247  0.20228313    -0.86980
O4          O  0.56506514  0.05090502  0.32574447    -0.85740
O5          O  0.53052592  0.01880111  0.37233765    -0.85330
O6          O  0.53668276  0.01538190  0.15486575    -0.86700
O7          O  0.52590507  0.08971517  0.25517297    -0.85180
O8          O  0.61673917  0.00149023  0.26788313    -0.84760
Zr9        Zr  0.54828620  0.02348726  0.26352734     2.84310
O10         O  0.49202094  0.02457363  0.30251379    -1.06740
O11         O  0.54839154  0.96876464  0.22348493    -1.07470
C12         C  0.63332458  0.96802446  0.27006432     1.07960
C13         C  0.49233197  0.10677266  0.25133211     1.07900
C14         C  0.56343172  0.03909816  0.16686825     1.10890
C15         C  0.55455324  0.04487448  0.36082446     1.08670
H16         H  0.49244620  0.04515556  0.20807659     0.34220
O17         O  0.49233829  0.02319995  0.22470080    -1.27690
H18         H  0.57006363  0.96970678  0.31920613     0.33900
O19         O  0.54742662  0.96927663  0.30246788    -1.29370
O20         O  0.36844503  0.00175842  0.26879447    -0.85140
O21         O  0.52612535  0.84790018  0.25239515    -0.86640
O22         O  0.44662011  0.01505402  0.15449710    -0.85220
O23         O  0.44605709  0.01621129  0.37214132    -0.85270
O24         O  0.53747868  0.92664219  0.37163678    -0.84980
O25         O  0.54208557  0.92737028  0.15487823    -0.84780
O26         O  0.41247192  0.89262497  0.19944697    -0.85150
O27         O  0.41404355  0.89034836  0.32195972    -0.84620
O28         O  0.44696583  0.92361081  0.15253241    -0.85680
O29         O  0.44358232  0.92568917  0.37030986    -0.84840
O30         O  0.41315940  0.04794030  0.20259684    -0.85240
O31         O  0.57696401  0.89525292  0.20074125    -0.84960
O32         O  0.56938211  0.89120450  0.32457931    -0.84610
O33         O  0.41814239  0.05339470  0.32526397    -0.85020
O34         O  0.36895311  0.93567039  0.26423439    -0.85310
O35         O  0.45871685  0.84787100  0.25383021    -0.86650
Zr36       Zr  0.43624506  0.02459805  0.26354880     2.83100
Zr37       Zr  0.54795906  0.91430655  0.26228471     2.83500
Zr38       Zr  0.49214413  0.96926536  0.18434256     2.84090
Zr39       Zr  0.49064724  0.96966199  0.34075215     2.83360
Zr40       Zr  0.43693318  0.91472944  0.26119855     2.84220
O41         O  0.49186563  0.91368860  0.30157508    -1.07220
O42         O  0.43560194  0.96973557  0.22305495    -1.06720
C43         C  0.35152302  0.96843957  0.26892743     1.07930
C44         C  0.49240997  0.83115421  0.24909731     1.10550
C45         C  0.42170906  0.04073738  0.16700505     1.08110
C46         C  0.42429550  0.04442883  0.36066276     1.08470
C47         C  0.56259261  0.90078670  0.36014584     1.08050
C48         C  0.56933562  0.90367876  0.16542261     1.07600
C49         C  0.42091742  0.89908524  0.16392846     1.08030
C50         C  0.41949770  0.89958331  0.35768957     1.07540
H51         H  0.49317590  0.89257362  0.20495159     0.34220
O52         O  0.49279197  0.91466616  0.22222882    -1.28320
H53         H  0.41250140  0.96979580  0.31785462     0.34240
O54         O  0.43545245  0.96963984  0.30145024    -1.29710
C55         C  0.48167738  0.67767448  0.18120453     0.04470
C56         C  0.44424489  0.66190717  0.17319256    -0.11680
C57         C  0.44116519  0.62496801  0.15636230     0.01970
C58         C  0.47495080  0.60408257  0.14745953    -0.10200
C59         C  0.51201726  0.62052115  0.15114552     0.04460
C60         C  0.51555240  0.65678724  0.16942757    -0.09620
H61         H  0.41783866  0.67846183  0.17919033     0.10060
H62         H  0.47208390  0.57559163  0.13442152     0.07590
H63         H  0.54444480  0.66903699  0.17357178     0.07430
C64         C  0.48364239  0.24976804  0.16942748     0.04470
C65         C  0.44755569  0.26180098  0.15359509    -0.11680
C66         C  0.44636715  0.29369649  0.12919197     0.01970
C67         C  0.48096974  0.31348147  0.12126468    -0.10200
C68         C  0.51663901  0.30263782  0.13753640     0.04460
C69         C  0.51798057  0.27071626  0.16156597    -0.09620
H70         H  0.42089674  0.24597012  0.15936202     0.10060
H71         H  0.48003075  0.33808407  0.10243467     0.07590
H72         H  0.54569868  0.26223026  0.17424306     0.07430
C73         C  0.19257344  0.95098951  0.32308945     0.04470
C74         C  0.17011885  0.98404058  0.33192789    -0.11680
C75         C  0.13492617  0.98105232  0.35229137     0.01970
C76         C  0.12087095  0.94502708  0.36226348    -0.10200
C77         C  0.14263244  0.91173793  0.35391876     0.04460
C78         C  0.17850585  0.91450427  0.33389629    -0.09620
H79         H  0.18132272  0.01234066  0.32530697     0.10060
H80         H  0.09423715  0.94315208  0.37939545     0.07590
H81         H  0.19639375  0.88900140  0.32909144     0.07430
C82         C  0.79726658  0.95130811  0.30779086     0.04470
C83         C  0.82116682  0.98419403  0.30960973    -0.11680
C84         C  0.85689792  0.98357400  0.32996474     0.01970
C85         C  0.87034194  0.94858012  0.34438257    -0.10200
C86         C  0.84700035  0.91562539  0.34299898     0.04460
C87         C  0.81066635  0.91679967  0.32411691    -0.09620
H88         H  0.81001763  0.01113775  0.29869684     0.10060
H89         H  0.89728538  0.94774984  0.36091931     0.07590
H90         H  0.79161018  0.89190647  0.32467819     0.07430
O91         O  0.33684772  0.51032411  0.05294988    -0.85150
O92         O  0.11577351  0.51662476  0.05765321    -0.85310
O93         O  0.23788942  0.58619014  0.04556617    -0.86980
O94         O  0.22189116  0.49814785  0.13342978    -0.85740
O95         O  0.22484697  0.43228892  0.13254450    -0.85330
O96         O  0.23907071  0.58453384  0.97928975    -0.86700
O97         O  0.16652821  0.55064595  0.08555591    -0.85180
O98         O  0.28964686  0.54097455  0.09008986    -0.84760
Zr99       Zr  0.22711461  0.52008387  0.06640556     2.84310
O100        O  0.18519362  0.46708891  0.06776179    -1.06740
O101        O  0.26536472  0.51870772  0.01019494    -1.07470
C102        C  0.32531047  0.53463360  0.07969818     1.07960
C103        C  0.13000077  0.54427452  0.07890977     1.07900
C104        C  0.24303026  0.60203036  0.01243274     1.10890
C105        C  0.22182436  0.46510808  0.15023114     1.08670
H106        H  0.17173174  0.54483960  0.01215358     0.34220
O107        O  0.18637355  0.52098962  0.01203510    -1.27690
H108        H  0.28385970  0.46440917  0.08792763     0.33900
O109        O  0.26707718  0.46502336  0.06548736    -1.29370
O110        O  0.10655980  0.42704771  0.96771923    -0.85140
O111        O  0.33216719  0.42007470  0.95860993    -0.86640
O112        O  0.16379007  0.54630893  0.93754152    -0.85220
O113        O  0.16383355  0.38803123  0.08807518    -0.85270
O114        O  0.28784822  0.38494282  0.08311851    -0.84980
O115        O  0.28694380  0.53719575  0.92776101    -0.84780
O116        O  0.21812087  0.42891608  0.89017286    -0.85150
O117        O  0.23026914  0.34371423  0.97870873    -0.84620
O118        O  0.21765553  0.49474106  0.88890966    -0.85680
O119        O  0.23101229  0.34527774  0.04507507    -0.84840
O120        O  0.11438934  0.51411312  0.96889889    -0.85240
O121        O  0.33543889  0.50849076  0.96332512    -0.84960
O122        O  0.33529751  0.41327917  0.04609884    -0.84610
O123        O  0.11407462  0.42084964  0.05783253    -0.85020
O124        O  0.15188786  0.39197797  0.93242454    -0.85310
O125        O  0.28230047  0.38650372  0.92853791    -0.86650
Zr126      Zr  0.14384849  0.46761688  0.01350590     2.83100
Zr127      Zr  0.30441661  0.46374623  0.00812575     2.83500
Zr128      Zr  0.22509109  0.51860524  0.95599625     2.84090
Zr129      Zr  0.22504473  0.41208746  0.06515505     2.83360
Zr130      Zr  0.21955902  0.40899773  0.95587029     2.84220
O131        O  0.26189663  0.41106416  0.00879107    -1.07220
O132        O  0.18266365  0.46570310  0.95757945    -1.06720
C133        C  0.11588021  0.40253482  0.94054271     1.07930
C134        C  0.31893426  0.39508398  0.93364926     1.10550
C135        C  0.12763798  0.53948895  0.94517439     1.08110
C136        C  0.12758299  0.39498070  0.08101043     1.08470
C137        C  0.32336820  0.38833161  0.07080852     1.08050
C138        C  0.32310297  0.53114448  0.93658363     1.07600
C139        C  0.21563368  0.46096641  0.87247991     1.08030
C140        C  0.23551553  0.32832963  0.01202649     1.07540
H141        H  0.27715872  0.46187563  0.93080465     0.34220
O142        O  0.26212131  0.46238290  0.95446701    -1.28320
H143        H  0.16560429  0.38797573  0.01224894     0.34240
O144        O  0.18190476  0.41065847  0.01213324    -1.29710
C145        C  0.16040170  0.45416585  0.71474567     0.04470
C146        C  0.14616100  0.48945237  0.70084065    -0.11680
C147        C  0.12853591  0.49103182  0.66472836     0.01970
C148        C  0.12393733  0.45780317  0.64255426    -0.10200
C149        C  0.13174306  0.42193008  0.65797135     0.04460
C150        C  0.15259232  0.41999232  0.69291100    -0.09620
H151        H  0.14736203  0.51553000  0.71836067     0.10060
H152        H  0.10999505  0.45970737  0.61447528     0.07590
H153        H  0.16135273  0.39208138  0.70314764     0.06230
C154        C  0.18579677  0.45408580  0.31375735     0.04470
C155        C  0.17240916  0.41878417  0.32864786    -0.11680
C156        C  0.15732679  0.41729953  0.36656659     0.01970
C157        C  0.15832265  0.45048456  0.39003821    -0.10200
C158        C  0.16668710  0.48603642  0.37417485     0.04460
C159        C  0.18278228  0.48759619  0.33708527    -0.09620
H160        H  0.17051689  0.39361273  0.30984614     0.10060
H161        H  0.14530420  0.44987255  0.41865641     0.07590
H162        H  0.18935438  0.51548429  0.32520929     0.07430
C163        C  0.32020237  0.18531574  0.01654098     0.04470
C164        C  0.32935656  0.16579244  0.05076759    -0.11680
C165        C  0.35349076  0.13282053  0.04904212     0.01970
C166        C  0.36878879  0.12053195  0.01351030    -0.10200
C167        C  0.35901923  0.13896681  0.97950633     0.04460
C168        C  0.33456887  0.17129567  0.98085909    -0.09620
H169        H  0.31810527  0.17630562  0.07828841     0.10060
H170        H  0.38802158  0.09556263  0.01210906     0.07590
H171        H  0.32713253  0.18577838  0.95436365     0.07430
C172        C  0.30315007  0.75906139  0.01381124     0.04470
C173        C  0.31849415  0.77679651  0.04765781    -0.11680
C174        C  0.33463066  0.81412821  0.04620445     0.01970
C175        C  0.33244797  0.83431046  0.01178849    -0.10200
C176        C  0.32105066  0.81623515  0.97746690     0.04460
C177        C  0.30575554  0.77875253  0.97852101    -0.09620
H178        H  0.31986593  0.76082644  0.07420222     0.10060
H179        H  0.34428445  0.86321465  0.01080908     0.07590
H180        H  0.29689394  0.76464467  0.95180336     0.07430
O181        O  0.06306817  0.13932244  0.42266231    -0.85150
O182        O  0.90207576  0.14386039  0.57570239    -0.85310
O183        O  0.02939006  0.09662039  0.54910678    -0.86980
O184        O  0.94636271  0.09350261  0.45051699    -0.85740
O185        O  0.91279945  0.13987151  0.41709366    -0.85330
O186        O  0.05504094  0.14455346  0.58813930    -0.86700
O187        O  0.93568479  0.09595548  0.54281649    -0.85180
O188        O  0.03286973  0.09353531  0.45946027    -0.84760
Zr189      Zr  0.98494311  0.12568704  0.50175779     2.84310
O190        O  0.92844771  0.16431428  0.49975780    -1.06740
O191        O  0.03999605  0.16543831  0.50376480    -1.07470
C192        C  0.05645770  0.10434555  0.43246150     1.07960
C193        C  0.90927079  0.10829535  0.56698768     1.07900
C194        C  0.05025980  0.10901606  0.57800374     1.10890
C195        C  0.92310202  0.10475894  0.42327303     1.08670
H196        H  0.98042159  0.15019053  0.58137561     0.34220
O197        O  0.98207492  0.16511807  0.55816821    -1.27690
H198        H  0.98751913  0.14775119  0.42297338     0.33900
O199        O  0.98620546  0.16349956  0.44617315    -1.29370
O200        O  0.90732808  0.26798427  0.57876394    -0.85140
O201        O  0.06962030  0.26222158  0.42621314    -0.86640
O202        O  0.00985154  0.22516209  0.62440278    -0.85220
O203        O  0.86115150  0.19678945  0.46750321    -0.85270
O204        O  0.95424752  0.21066585  0.37894287    -0.84980
O205        O  0.10540605  0.19612985  0.53908719    -0.84780
O206        O  0.03057630  0.31214412  0.54414983    -0.85150
O207        O  0.93391883  0.31059487  0.45708211    -0.84620
O208        O  0.06416071  0.26648567  0.57834481    -0.85680
O209        O  0.90191618  0.26240565  0.42353220    -0.84840
O210        O  0.94327967  0.21781300  0.62161984    -0.85240
O211        O  0.10909854  0.19651084  0.47271710    -0.84960
O212        O  0.02171443  0.20779796  0.37944594    -0.84610
O213        O  0.86003935  0.20454146  0.53332719    -0.85020
O214        O  0.94756707  0.31227650  0.55012676    -0.85310
O215        O  0.03257630  0.30992752  0.45479791    -0.86650
Zr216      Zr  0.92706799  0.20517510  0.55418372     2.83100
Zr217      Zr  0.04222323  0.20185243  0.44734014     2.83500
Zr218      Zr  0.03722476  0.20516734  0.55942498     2.84090
Zr219      Zr  0.92962429  0.20215712  0.44466175     2.83360
Zr220      Zr  0.98474147  0.28121939  0.49862962     2.84220
O221        O  0.98600246  0.24066318  0.44449746    -1.07220
O222        O  0.98227582  0.24371748  0.55373647    -1.06720
C223        C  0.92237064  0.30172054  0.57563975     1.07930
C224        C  0.06073201  0.29789212  0.43236120     1.10550
C225        C  0.97476938  0.22843329  0.63944358     1.08110
C226        C  0.84321016  0.19889744  0.50060602     1.08470
C227        C  0.98824505  0.21226187  0.36231400     1.08050
C228        C  0.12437675  0.19369691  0.50674046     1.07600
C229        C  0.05601488  0.30148004  0.56972950     1.08030
C230        C  0.90756061  0.29800646  0.43285088     1.07540
H231        H  0.06407340  0.25698679  0.50297378     0.34220
O232        O  0.04051021  0.24162389  0.50254579    -1.28320
H233        H  0.90450321  0.25883266  0.49934958     0.34240
O234        O  0.92788658  0.24301755  0.49904199    -1.29710
C235        C  0.68112651  0.15331494  0.51771145     0.04470
C236        C  0.65820849  0.15009268  0.48420627    -0.11680
C237        C  0.62268272  0.13041406  0.48466515     0.01970
C238        C  0.60749751  0.11785163  0.51951994    -0.10200
C239        C  0.62838386  0.12264357  0.55397275     0.04460
C240        C  0.66586961  0.13988162  0.55303421    -0.09620
H241        H  0.66956350  0.15991197  0.45683355     0.10060
H242        H  0.58063300  0.10116486  0.51932173     0.07590
H243        H  0.68346226  0.14141855  0.57902504     0.07430
C244        C  0.28965656  0.15510717  0.51519196     0.04470
C245        C  0.30706119  0.14547195  0.55067712    -0.11680
C246        C  0.34491039  0.12944191  0.55159875     0.01970
C247        C  0.36594994  0.12432067  0.51729511    -0.10200
C248        C  0.34846063  0.13184274  0.48176030     0.04460
C249        C  0.31069344  0.14813262  0.48068469    -0.09620
H250        H  0.29033035  0.14814613  0.57724884     0.10060
H251        H  0.39401088  0.10939738  0.51786146     0.07590
H252        H  0.29634862  0.15186858  0.45308585     0.07430
C253        C  0.98535342  0.26173059  0.20304946     0.04470
C254        C  0.02161941  0.27213163  0.18671598    -0.11680
C255        C  0.02261266  0.29164789  0.15164496     0.01970
C256        C  0.98780410  0.30011770  0.13268975    -0.10200
C257        C  0.95131078  0.29141541  0.14844909     0.04460
C258        C  0.95011089  0.27164313  0.18380747    -0.09620
H259        H  0.04864790  0.26743781  0.20244912     0.10060
H260        H  0.98933588  0.31799948  0.10737075     0.07590
H261        H  0.92212681  0.26545644  0.19719000     0.07430
C262        C  0.95196727  0.32247699  0.78523294     0.04470
C263        C  0.98463494  0.33220468  0.80917251    -0.11680
C264        C  0.98022815  0.35084168  0.84555977     0.01970
C265        C  0.94183869  0.36159220  0.85695066    -0.10200
C266        C  0.91060311  0.36449010  0.82973057     0.04460
C267        C  0.91528537  0.34057746  0.79614762    -0.09620
H268        H  0.01409294  0.32543838  0.80028765     0.10060
H269        H  0.93726340  0.36925571  0.88677548     0.07590
H270        H  0.88972727  0.33751763  0.77869220     0.07430
O271        O  0.03606434  0.80575201  0.45782999    -0.85150
O272        O  0.03635763  0.58906271  0.46270583    -0.85310
O273        O  0.11073575  0.70862781  0.46830194    -0.86980
O274        O  0.01896052  0.69132463  0.38212336    -0.85740
O275        O  0.95157022  0.69482895  0.38286165    -0.85330
O276        O  0.11043649  0.71190089  0.53455066    -0.86700
O277        O  0.07144375  0.63561221  0.43131601    -0.85180
O278        O  0.06503710  0.75727684  0.42159861    -0.84760
Zr279      Zr  0.04275617  0.69743224  0.44809935     2.84310
O280        O  0.98657332  0.65870146  0.44876729    -1.06740
O281        O  0.04315358  0.73870027  0.50187460    -1.07470
C282        C  0.05992624  0.79287798  0.43125196     1.07960
C283        C  0.06421484  0.60051102  0.44014943     1.07900
C284        C  0.12736119  0.71476257  0.50135789     1.10890
C285        C  0.98506307  0.69168128  0.36550069     1.08670
H286        H  0.06778202  0.64527634  0.50449316     0.34220
O287        O  0.04402538  0.66050699  0.50377335    -1.27690
H288        H  0.98658631  0.75182634  0.42463965     0.33900
O289        O  0.98678295  0.73684009  0.44786122    -1.29370
O290        O  0.94903049  0.59251382  0.55675360    -0.85140
O291        O  0.93748085  0.80853382  0.54355986    -0.86640
O292        O  0.06878080  0.64220316  0.58018088    -0.85220
O293        O  0.90418438  0.63658399  0.43097048    -0.85270
O294        O  0.90776951  0.75918198  0.42516238    -0.84980
O295        O  0.06431997  0.76424957  0.58277492    -0.84780
O296        O  0.95579763  0.69799231  0.62619494    -0.85150
O297        O  0.86509520  0.70719014  0.54007669    -0.84620
O298        O  0.02301422  0.69555010  0.62440961    -0.85680
O299        O  0.86351688  0.70976252  0.47401639    -0.84840
O300        O  0.03153969  0.59422648  0.55221184    -0.85240
O301        O  0.03227770  0.81006598  0.54765724    -0.84960
O302        O  0.94181469  0.80694888  0.45692439    -0.84610
O303        O  0.93962656  0.58960104  0.46170694    -0.85020
O304        O  0.91461752  0.64061559  0.58852035    -0.85310
O305        O  0.90990529  0.76290555  0.58251557    -0.86650
Zr306      Zr  0.98751404  0.62146397  0.50447015     2.83100
Zr307      Zr  0.98759419  0.77787043  0.50231804     2.83500
Zr308      Zr  0.04377623  0.70234481  0.55750089     2.84090
Zr309      Zr  0.93053521  0.69831140  0.45016693     2.83360
Zr310      Zr  0.93306635  0.70106780  0.55975569     2.84220
O311        O  0.93252756  0.73834976  0.50449729    -1.07220
O312        O  0.98884373  0.66301228  0.55791998    -1.06720
C313        C  0.92608391  0.60543971  0.58400472     1.07930
C314        C  0.91367234  0.79742529  0.57032865     1.10550
C315        C  0.05793428  0.60699913  0.57591864     1.08110
C316        C  0.91240866  0.60134513  0.43854970     1.08470
C317        C  0.91589310  0.79480868  0.43231083     1.08050
C318        C  0.05681169  0.79936241  0.57396515     1.07600
C319        C  0.98971261  0.69393126  0.64220022     1.08030
C320        C  0.84735376  0.71288698  0.50779608     1.07540
H321        H  0.98774678  0.75780860  0.58187109     0.34220
O322        O  0.98789651  0.74145827  0.55902403    -1.28320
H323        H  0.90698769  0.64445529  0.50685864     0.34240
O324        O  0.93040595  0.65997999  0.50550898    -1.29710
C325        C  0.69169394  0.78184471  0.51410241     0.04470
C326        C  0.67667148  0.79919503  0.48059559    -0.11680
C327        C  0.64061683  0.81905069  0.48180136     0.01970
C328        C  0.61920459  0.82045856  0.51620345    -0.10200
C329        C  0.63494065  0.80636343  0.55016359     0.04460
C330        C  0.67064038  0.78619694  0.54915498    -0.09620
H331        H  0.69382412  0.79888661  0.45422165     0.10060
H332        H  0.59141189  0.83582917  0.51745876     0.07590
H333        H  0.68230712  0.77501091  0.57578092     0.07430
C334        C  0.28295779  0.78049094  0.50441370     0.04470
C335        C  0.29883016  0.79667785  0.47082383    -0.11680
C336        C  0.33315073  0.81881007  0.47321648     0.01970
C337        C  0.35226190  0.82310125  0.50857277    -0.10200
C338        C  0.33707827  0.80746506  0.54226149     0.04460
C339        C  0.30221619  0.78603810  0.54012389    -0.09620
H340        H  0.28334788  0.79401458  0.44360654     0.10060
H341        H  0.37836434  0.84083407  0.51012429     0.07590
H342        H  0.28949851  0.77455880  0.56618915     0.07430
C343        C  0.98345648  0.67097468  0.20018709     0.04470
C344        C  0.01902702  0.66655040  0.17994125    -0.11680
C345        C  0.01923083  0.65124206  0.14239525     0.01970
C346        C  0.98377550  0.64466364  0.12342469    -0.10200
C347        C  0.94852237  0.64548634  0.14421835     0.04460
C348        C  0.94805988  0.66036881  0.18213096    -0.09620
H349        H  0.04668604  0.67038193  0.19494821     0.10060
H350        H  0.98436667  0.63094440  0.09501270     0.07590
H351        H  0.92123750  0.65922654  0.19897946     0.07430
C352        C  0.98628636  0.64586146  0.80149357     0.04470
C353        C  0.02195469  0.64262069  0.82182673    -0.11680
C354        C  0.02192629  0.63139544  0.86038583     0.01970
C355        C  0.98653488  0.62630884  0.87945017    -0.10200
C356        C  0.95163995  0.62363239  0.85870690     0.04460
C357        C  0.95100368  0.63484408  0.81985144    -0.09620
H358        H  0.04978613  0.64743804  0.80755737     0.10060
H359        H  0.98697520  0.61734332  0.90933362     0.07590
H360        H  0.92397699  0.63287383  0.80350545     0.07430
O361        O  0.67145041  0.53925934  0.08751590    -0.85150
O362        O  0.68454799  0.37938103  0.93256325    -0.85310
O363        O  0.62853150  0.50326334  0.96128508    -0.86980
O364        O  0.63025996  0.41575670  0.05145105    -0.85740
O365        O  0.67865307  0.38535104  0.08577497    -0.85330
O366        O  0.67489839  0.53421029  0.92536415    -0.86700
O367        O  0.63430588  0.41118033  0.96457829    -0.85180
O368        O  0.62636655  0.50612789  0.05104617    -0.84760
Zr369      Zr  0.66109352  0.46054865  0.00747013     2.84310
O370        O  0.70518102  0.40878794  0.00784546    -1.06740
O371        O  0.69814212  0.51622132  0.00761957    -1.07470
C372        C  0.63603854  0.53132960  0.07742528     1.07960
C373        C  0.64777971  0.38541542  0.94057901     1.07900
C374        C  0.63906412  0.52700750  0.93469489     1.10890
C375        C  0.64255620  0.39147903  0.07660116     1.08670
H376        H  0.68652882  0.45701351  0.93011940     0.34220
O377        O  0.70247889  0.45873125  0.95309831    -1.27690
H378        H  0.68132925  0.46272017  0.08722654     0.33900
O379        O  0.69801057  0.46305092  0.06464457    -1.29370
O380        O  0.82212265  0.39508303  0.94907318    -0.85140
O381        O  0.79458554  0.55047445  0.08653547    -0.86640
O382        O  0.74543705  0.48586936  0.88532927    -0.85220
O383        O  0.73519459  0.34322998  0.04285007    -0.85270
O384        O  0.74447359  0.43300821  0.13141958    -0.84980
O385        O  0.72280249  0.58173104  0.97499196    -0.84780
O386        O  0.84688572  0.51684118  0.96936406    -0.85150
O387        O  0.85142215  0.41872543  0.05453767    -0.84620
O388        O  0.79845568  0.54491976  0.93328260    -0.85680
O389        O  0.80299867  0.38637316  0.08698772    -0.84840
O390        O  0.73563600  0.42130460  0.88637058    -0.85240
O391        O  0.72491942  0.58451556  0.04141826    -0.84960
O392        O  0.74042583  0.49900052  0.13241083    -0.84610
O393        O  0.73966292  0.34130094  0.97658313    -0.85020
O394        O  0.86451364  0.44240655  0.96431950    -0.85310
O395        O  0.84541035  0.51675949  0.05852852    -0.86650
Zr396      Zr  0.74745308  0.40682911  0.95432662     2.83100
Zr397      Zr  0.73532139  0.51934504  0.06458944     2.83500
Zr398      Zr  0.73764298  0.51553345  0.95212762     2.84090
Zr399      Zr  0.74115821  0.41044147  0.06457450     2.83360
Zr400      Zr  0.82025482  0.46840432  0.01310441     2.84220
O401        O  0.77863990  0.46705163  0.06698245    -1.07220
O402        O  0.78256430  0.46436533  0.95554255    -1.06720
C403        C  0.85231980  0.41662881  0.94051350     1.07930
C404        C  0.83131793  0.54382036  0.08069996     1.10550
C405        C  0.74734253  0.45148210  0.86908625     1.08110
C406        C  0.73357425  0.32572353  0.00963338     1.08470
C407        C  0.74461205  0.46607617  0.14897916     1.08050
C408        C  0.71957845  0.59970036  0.00803614     1.07600
C409        C  0.83451697  0.54032348  0.94330286     1.08030
C410        C  0.83907144  0.39279671  0.07844486     1.07540
H411        H  0.78938567  0.54428669  0.00971171     0.34220
O412        O  0.77550814  0.52010664  0.00949987    -1.28320
H413        H  0.80034540  0.38762255  0.01284958     0.34240
O414        O  0.78394158  0.41026412  0.01147324    -1.29710
C415        C  0.89946266  0.44982067  0.75342665     0.04470
C416        C  0.90204081  0.41658382  0.73011096    -0.11680
C417        C  0.90186840  0.41878981  0.69007811     0.01970
C418        C  0.90064466  0.45426542  0.67257054    -0.10200
C419        C  0.89792549  0.48830348  0.69445910     0.04460
C420        C  0.89724054  0.48620135  0.73542884    -0.09620
H421        H  0.90190958  0.38867874  0.74278028     0.10060
H422        H  0.90238265  0.45523750  0.64130684     0.07590
H423        H  0.89353011  0.51216179  0.75284311     0.07430
C424        C  0.78602757  0.45381813  0.31039996     0.04470
C425        C  0.79417591  0.41835128  0.32837296    -0.11680
C426        C  0.81441701  0.41755498  0.36408639     0.01970
C427        C  0.82551758  0.45263261  0.38122843    -0.10200
C428        C  0.81782290  0.48755827  0.36371892     0.04460
C429        C  0.79786679  0.48832581  0.32850641    -0.09620
H430        H  0.78622929  0.39174285  0.31372698     0.10060
H431        H  0.84382483  0.45296342  0.40680721     0.07590
H432        H  0.79421709  0.51542239  0.31385448     0.07430
C433        C  0.66868277  0.17236458  0.00915675     0.04470
C434        C  0.65759446  0.15651097  0.04470706    -0.11680
C435        C  0.63661647  0.12189944  0.04528493     0.01970
C436        C  0.62885049  0.10215381  0.01077378    -0.10200
C437        C  0.63850244  0.11780679  0.97531754     0.04460
C438        C  0.65830420  0.15315794  0.97434871    -0.09620
H439        H  0.66308827  0.17216227  0.07148719     0.10060
H440        H  0.61238931  0.07547733  0.01145265     0.07590
H441        H  0.66504594  0.16588873  0.94678924     0.07430
C442        C  0.66681401  0.75891536  0.00949245     0.04470
C443        C  0.66158175  0.78158590  0.04356294    -0.11680
C444        C  0.65104802  0.82092116  0.04107824     0.01970
C445        C  0.65054373  0.83747539  0.00453916    -0.10200
C446        C  0.64772665  0.81422679  0.97156751     0.04460
C447        C  0.65732354  0.77512912  0.97362198    -0.09620
H448        H  0.66329633  0.76797692  0.07138464     0.10060
H449        H  0.64496738  0.86805799  0.00188067     0.07590
H450        H  0.65635895  0.75732687  0.94764403     0.07430
O451        O  0.40160777  0.04111342  0.82563481    -0.85150
O452        O  0.56252917  0.88803240  0.82514140    -0.85310
O453        O  0.43063080  0.92128360  0.87368491    -0.86980
O454        O  0.52808849  0.00707110  0.87362410    -0.85740
O455        O  0.56172409  0.03805990  0.82559845    -0.85330
O456        O  0.39744466  0.88848530  0.82555942    -0.86700
O457        O  0.52696813  0.91780768  0.87360188    -0.85180
O458        O  0.43927097  0.01317739  0.87267309    -0.84760
Zr459      Zr  0.48038316  0.96271494  0.84334451     2.84310
O460        O  0.53668355  0.96183197  0.80392038    -1.06740
O461        O  0.42383449  0.96239938  0.80408794    -1.07470
C462        C  0.41364885  0.03782669  0.86064157     1.07960
C463        C  0.55436342  0.89472868  0.86088771     1.07900
C464        C  0.40441838  0.89706887  0.86115920     1.10890
C465        C  0.55389026  0.03130217  0.86117340     1.08670
H466        H  0.47941745  0.88569430  0.82096406     0.34220
O467        O  0.47957566  0.90753718  0.80413579    -1.27690
H468        H  0.48142932  0.03873635  0.81932903     0.33900
O469        O  0.48081685  0.01589900  0.80311775    -1.29370
O470        O  0.55492009  0.87866177  0.70305258    -0.85140
O471        O  0.40735453  0.04355325  0.70278979    -0.86640
O472        O  0.44612685  0.83987214  0.77154893    -0.85220
O473        O  0.60467193  0.99274314  0.75643027    -0.85270
O474        O  0.51432864  0.08318105  0.77009821    -0.84980
O475        O  0.35657639  0.92888747  0.75683528    -0.84780
O476        O  0.43727523  0.91219973  0.65511863    -0.85150
O477        O  0.52613651  0.00628961  0.65510398    -0.84620
O478        O  0.40432517  0.87992599  0.70268849    -0.85680
O479        O  0.55859473  0.03986560  0.70311772    -0.84840
O480        O  0.51346771  0.84045987  0.77286531    -0.85240
O481        O  0.35659381  0.99507050  0.75711083    -0.84960
O482        O  0.44694723  0.08267400  0.77106931    -0.84610
O483        O  0.60260758  0.92686026  0.75801184    -0.85020
O484        O  0.52669489  0.91430059  0.65499124    -0.85310
O485        O  0.43651027  0.00697043  0.65461024    -0.86650
Zr486      Zr  0.53494354  0.90662142  0.76440614     2.83100
Zr487      Zr  0.42482222  0.01616023  0.76416594     2.83500
Zr488      Zr  0.42428547  0.90703408  0.76424186     2.84090
Zr489      Zr  0.53671007  0.01576268  0.76417349     2.83360
Zr490      Zr  0.48068702  0.96040751  0.68523471     2.84220
O491        O  0.48083107  0.01594921  0.72488206    -1.07220
O492        O  0.47986492  0.90584466  0.72454479    -1.06720
C493        C  0.54934608  0.88719448  0.66746843     1.07930
C494        C  0.41440622  0.03500118  0.66712295     1.10550
C495        C  0.48000868  0.82335471  0.77573937     1.08110
C496        C  0.62068230  0.95896351  0.75315046     1.08470
C497        C  0.48040717  0.09995846  0.77371597     1.08050
C498        C  0.33960270  0.96197615  0.75362176     1.07600
C499        C  0.41297002  0.88637253  0.66717978     1.08030
C500        C  0.55085293  0.03198130  0.66755553     1.07540
H501        H  0.40222775  0.96099152  0.70756788     0.34220
O502        O  0.42474941  0.96101781  0.72443989    -1.28320
H503        H  0.55862042  0.95967777  0.70802328     0.34240
O504        O  0.53593807  0.96039965  0.72476542    -1.29710
C505        C  0.48050227  0.66593423  0.83090960     0.04470
C506        C  0.44403697  0.64886007  0.83967850    -0.11680
C507        C  0.44265788  0.61198693  0.85538203     0.01970
C508        C  0.47735181  0.59187601  0.86181811    -0.10200
C509        C  0.51379988  0.60962410  0.85781044     0.04460
C510        C  0.51553168  0.64608943  0.84069408    -0.09620
H511        H  0.41696344  0.66490970  0.83622798     0.10060
H512        H  0.47573818  0.56359946  0.87455635     0.07590
H513        H  0.54382538  0.65948924  0.83653035     0.07430
C514        C  0.48200112  0.25878625  0.83013581     0.04470
C515        C  0.44728194  0.28055045  0.83637070    -0.11680
C516        C  0.44776499  0.31497753  0.85853729     0.01970
C517        C  0.48383439  0.32812055  0.87298134    -0.10200
C518        C  0.51880632  0.30778155  0.86610398     0.04460
C519        C  0.51787869  0.27319868  0.84454854    -0.09620
H520        H  0.41974800  0.27008283  0.82476735     0.10060
H521        H  0.48471534  0.35369037  0.89132758     0.07590
H522        H  0.54461450  0.25646442  0.84112759     0.07430
C523        C  0.18206619  0.95795715  0.69352739     0.04470
C524        C  0.16300893  0.99288665  0.68524791    -0.11680
C525        C  0.12738553  0.99255088  0.66503779     0.01970
C526        C  0.11026740  0.95758525  0.65463827    -0.10200
C527        C  0.13054030  0.92296022  0.65925585     0.04460
C528        C  0.16612246  0.92296328  0.67971825    -0.09620
H529        H  0.17713917  0.02004967  0.69208638     0.10060
H530        H  0.08299398  0.95776861  0.63846484     0.07590
H531        H  0.18252594  0.89639814  0.68276306     0.07430
C532        C  0.77017837  0.95368326  0.67239186     0.04470
C533        C  0.78656431  0.98807049  0.65808127    -0.11680
C534        C  0.81906155  0.98653165  0.63290106     0.01970
C535        C  0.83243254  0.95086561  0.61921544    -0.10200
C536        C  0.81763764  0.91688293  0.63371463     0.04460
C537        C  0.78794234  0.91820115  0.66160015    -0.09620
H538        H  0.77434496  0.01581837  0.66620802     0.10060
H539        H  0.85594897  0.94945511  0.59802531     0.07590
H540        H  0.77822977  0.89146225  0.67394841     0.07430
C541        C  0.45522926  0.75491876  0.77213804     0.24940
C542        C  0.48101383  0.78251032  0.78779339    -0.23170
C543        C  0.50700256  0.77140240  0.81722657     0.19850
C544        C  0.50697898  0.73376590  0.83100953     0.24880
C545        C  0.48153456  0.70581415  0.81516077    -0.23110
C546        C  0.45581443  0.71687136  0.78529969     0.19780
F547        F  0.43139832  0.69073167  0.76852120    -0.13070
F548        F  0.42984474  0.76463624  0.74370837    -0.15430
F549        F  0.53058284  0.72535989  0.86129061    -0.15440
F550        F  0.53121124  0.79763012  0.83422267    -0.13070
C551        C  0.50758009  0.16769563  0.77136045     0.24940
C552        C  0.47938706  0.14158920  0.78484367    -0.23170
C553        C  0.45122692  0.15493311  0.81186734     0.19850
C554        C  0.45180955  0.19293709  0.82582963     0.24880
C555        C  0.48010980  0.21911913  0.81269118    -0.23110
C556        C  0.50773807  0.20614432  0.78488485     0.19780
F557        F  0.53486906  0.23071431  0.77069949    -0.13070
F558        F  0.53483058  0.15607690  0.74491572    -0.15430
F559        F  0.42586398  0.20342903  0.85397549    -0.15440
F560        F  0.42425038  0.13055431  0.82665379    -0.13070
C561        C  0.29251541  0.95799547  0.69978859     0.24940
C562        C  0.29883914  0.96160661  0.73973084    -0.23170
C563        C  0.26651375  0.96379429  0.76491915     0.19850
C564        C  0.22814510  0.96246601  0.75004490     0.24880
C565        C  0.22201249  0.95867350  0.70998244    -0.23110
C566        C  0.25444879  0.95642978  0.68502486     0.19780
F567        F  0.24914087  0.95308107  0.64625178    -0.13070
F568        F  0.32345923  0.95603032  0.67504088    -0.15430
F569        F  0.19704376  0.96456396  0.77458317    -0.15440
F570        F  0.27212762  0.96695977  0.80363439    -0.13070
C571        C  0.68907687  0.98547137  0.74326975     0.24940
C572        C  0.66138889  0.95595371  0.73790709    -0.23170
C573        C  0.67093535  0.92484177  0.71295441     0.19850
C574        C  0.70552917  0.92471060  0.69153431     0.24880
C575        C  0.73358367  0.95413689  0.69654915    -0.23110
C576        C  0.72527672  0.98404209  0.72366500     0.19780
F577        F  0.75204318  0.01191901  0.73146563    -0.13070
F578        F  0.68117999  0.01566795  0.76750466    -0.15430
F579        F  0.71001321  0.89665250  0.66405700    -0.15440
F580        F  0.64548215  0.89535649  0.70694506    -0.13070
C581        C  0.61885540  0.86710798  0.88172540     0.24940
C582        C  0.57840388  0.87334159  0.88876903    -0.23170
C583        C  0.56080437  0.85633566  0.92084456     0.19850
C584        C  0.58326596  0.83395730  0.94564246     0.24880
C585        C  0.62397353  0.82948375  0.93975302    -0.23110
C586        C  0.64157795  0.84576245  0.90741660     0.19780
F587        F  0.68082199  0.84198866  0.90143861    -0.13070
F588        F  0.63665305  0.88279756  0.85063496    -0.15430
F589        F  0.56549044  0.81734081  0.97623956    -0.15440
F590        F  0.52176655  0.86077034  0.92780435    -0.13070
C591        C  0.60895966  0.03734420  0.90776147     0.24940
C592        C  0.57656450  0.05386482  0.88938596    -0.23170
C593        C  0.56830944  0.09321516  0.89513069     0.19850
C594        C  0.59086232  0.11531061  0.92089815     0.24880
C595        C  0.62237941  0.09840470  0.94061973    -0.23110
C596        C  0.63178285  0.05948186  0.93317470     0.19780
F597        F  0.66211560  0.04259919  0.95192414    -0.13070
F598        F  0.61834579  0.99978001  0.90113638    -0.15430
F599        F  0.58033434  0.15241644  0.92856296    -0.15440
F600        F  0.53767992  0.10988028  0.87661395    -0.13070
C601        C  0.92086546  0.44217702  0.83198972     0.24940
C602        C  0.88794489  0.44406949  0.79419378    -0.23170
C603        C  0.83952983  0.43324979  0.80121274     0.19850
C604        C  0.82686923  0.41480671  0.87179890     0.24880
C605        C  0.86620626  0.41746939  0.89919811    -0.23110
C606        C  0.91046680  0.43137145  0.88014296     0.19780
F607        F  0.94007684  0.43714424  0.90571685    -0.13070
F608        F  0.95862914  0.45106872  0.82369916    -0.15430
F609        F  0.79800519  0.39208859  0.88698894    -0.15440
F610        F  0.81525318  0.43422432  0.76957431    -0.13070
C611        C  0.79172520  0.45333992  0.20157800     0.24940
C612        C  0.75398540  0.46534546  0.19074387    -0.23170
C613        C  0.72598925  0.47345156  0.21973805     0.19850
C614        C  0.73576663  0.46889031  0.25898175     0.24880
C615        C  0.77324584  0.45520347  0.26945702    -0.23110
C616        C  0.80105317  0.44757829  0.24034435     0.19780
F617        F  0.83788751  0.43590645  0.24968558    -0.13070
F618        F  0.82009123  0.44858861  0.17436767    -0.15430
F619        F  0.70879644  0.47774962  0.28669812    -0.15440
F620        F  0.68938102  0.48547624  0.21009505    -0.13070
C621        C  0.58626724  0.34709525  0.94326617     0.24940
C622        C  0.61797580  0.36081689  0.92144194    -0.23170
C623        C  0.61909616  0.35299119  0.88142091     0.19850
C624        C  0.58772630  0.33374113  0.86327700     0.24880
C625        C  0.55517733  0.32180964  0.88504507    -0.23110
C626        C  0.55538613  0.32762052  0.92530757     0.19780
F627        F  0.52483182  0.31546781  0.94716227    -0.13070
F628        F  0.58491895  0.35304536  0.98212962    -0.15430
F629        F  0.58794558  0.32898862  0.82428160    -0.15440
F630        F  0.64915406  0.36623538  0.85959636    -0.13070
C631        C  0.73799293  0.25617222  0.02895646     0.24940
C632        C  0.71930625  0.28569489  0.00870690    -0.23170
C633        C  0.68434101  0.27763332  0.98873231     0.19850
C634        C  0.66826556  0.24079747  0.98866008     0.24880
C635        C  0.68699555  0.21098526  0.00841457    -0.23110
C636        C  0.72203329  0.21891221  0.02863656     0.19780
F637        F  0.74087894  0.19050950  0.04773292    -0.13070
F638        F  0.77175010  0.26331838  0.04853641    -0.15430
F639        F  0.63339341  0.23466943  0.97063771    -0.15440
F640        F  0.66460450  0.30607788  0.97074241    -0.13070
C641        C  0.61373243  0.56360095  0.87693551     0.24940
C642        C  0.60777003  0.54868545  0.91424917    -0.23170
C643        C  0.57199589  0.55654270  0.93303253     0.19850
C644        C  0.54304089  0.57842570  0.91541869     0.24880
C645        C  0.54792512  0.59156965  0.87743546    -0.23110
C646        C  0.58387086  0.58455012  0.85855545     0.19780
F647        F  0.58960174  0.59675918  0.82196806    -0.13070
F648        F  0.64792179  0.55691444  0.85768806    -0.15430
F649        F  0.50980215  0.58669174  0.93576333    -0.15440
F650        F  0.56494450  0.54349334  0.96895831    -0.13070
C651        C  0.67100804  0.65065982  0.99060629     0.24940
C652        C  0.70676175  0.64055440  0.00803470    -0.23170
C653        C  0.72824087  0.66918858  0.02784892     0.19850
C654        C  0.71482190  0.70750115  0.02911400     0.24880
C655        C  0.67936855  0.71778070  0.01104154    -0.23110
C656        C  0.65734022  0.68878392  0.99226685     0.19780
F657        F  0.62209897  0.69725199  0.97614755    -0.13070
F658        F  0.64857409  0.62326157  0.97310902    -0.15430
F659        F  0.73712265  0.73480596  0.04691137    -0.15440
F660        F  0.76273353  0.66020342  0.04515200    -0.13070
C661        C  0.85397408  0.59752245  0.90377021     0.24940
C662        C  0.86407464  0.56280280  0.92213731    -0.23170
C663        C  0.90222223  0.54800427  0.91756324     0.19850
C664        C  0.92899348  0.56628054  0.89391765     0.24880
C665        C  0.91963420  0.60169796  0.87685343    -0.23110
C666        C  0.88180138  0.61704934  0.88162218     0.19780
F667        F  0.87225866  0.65139536  0.86600208    -0.13070
F668        F  0.81761845  0.61321254  0.90818970    -0.15430
F669        F  0.96456725  0.54930682  0.88782723    -0.15440
F670        F  0.91311588  0.51437552  0.93394750    -0.13070
C671        C  0.87834869  0.63301790  0.12535175     0.24940
C672        C  0.91684448  0.61978602  0.13069407    -0.23170
C673        C  0.92591314  0.58087703  0.12271777     0.19850
C674        C  0.89780298  0.55614861  0.10757414     0.24880
C675        C  0.85967770  0.56955435  0.10023274    -0.23110
C676        C  0.84981777  0.60805539  0.11018610     0.19780
F677        F  0.81313205  0.62200611  0.10387672    -0.13070
F678        F  0.86881148  0.67027130  0.13348386    -0.15430
F679        F  0.90808289  0.51891160  0.10019975    -0.15440
F680        F  0.96236425  0.56661455  0.12945603    -0.13070
C681        C  0.39721909  0.81968389  0.58174813     0.24940
C682        C  0.35587599  0.81898092  0.57928300    -0.23170
C683        C  0.33360939  0.83700846  0.60878075     0.19850
C684        C  0.35237181  0.85767991  0.63842327     0.24880
C685        C  0.39343535  0.86180385  0.63815445    -0.23110
C686        C  0.41577126  0.84175535  0.61032736     0.19780
F687        F  0.45557075  0.84390150  0.61060080    -0.13070
F688        F  0.41963542  0.80077527  0.55497108    -0.15430
F689        F  0.33027352  0.87570875  0.66599575    -0.15440
F690        F  0.29376947  0.83736933  0.60729833    -0.13070
C691        C  0.56077010  0.82732435  0.62822964     0.24940
C692        C  0.57221514  0.86473951  0.63917957    -0.23170
C693        C  0.60728700  0.87990185  0.62487250     0.19850
C694        C  0.63032590  0.85827303  0.59912020     0.24880
C695        C  0.61786338  0.82173218  0.58627555    -0.23110
C696        C  0.58310255  0.80618342  0.60118366     0.19780
F697        F  0.56992233  0.77153168  0.58808067    -0.13070
F698        F  0.52728600  0.81200203  0.64259641    -0.15430
F699        F  0.66334274  0.87415231  0.58428177    -0.15440
F700        F  0.61866265  0.91607081  0.63512728    -0.13070
C701        C  0.90072870  0.55497611  0.38464711     0.24940
C702        C  0.88786313  0.57263934  0.41911415    -0.23170
C703        C  0.84984203  0.56554699  0.43295890     0.19850
C704        C  0.82546139  0.53954908  0.41334268     0.24880
C705        C  0.83858438  0.52133550  0.37917552    -0.23110
C706        C  0.87616690  0.52944802  0.36473406     0.19780
F707        F  0.88975442  0.51091157  0.33250229    -0.13070
F708        F  0.93711967  0.56227501  0.37052238    -0.15430
F709        F  0.78970655  0.53103767  0.42830402    -0.15440
F710        F  0.83676691  0.58325296  0.46584672    -0.13070
C711        C  0.96162313  0.71140482  0.30025299     0.24940
C712        C  0.98478206  0.68726659  0.32320287    -0.23170
C713        C  0.00769273  0.65828442  0.30548949     0.19850
C714        C  0.00722549  0.65321954  0.26550568     0.24880
C715        C  0.98434127  0.67751134  0.24239662    -0.23110
C716        C  0.96143836  0.70659372  0.26003446     0.19780
F717        F  0.93937880  0.73055550  0.23828174    -0.13070
F718        F  0.94004786  0.74021376  0.31670615    -0.15430
F719        F  0.02811764  0.62361699  0.24945224    -0.15440
F720        F  0.02947301  0.63390327  0.32706355    -0.13070
C721        C  0.88657940  0.83271655  0.62760592     0.24940
C722        C  0.88705027  0.82597286  0.58751275    -0.23170
C723        C  0.85976064  0.84458651  0.56397535     0.19850
C724        C  0.83401089  0.87174696  0.57998410     0.24880
C725        C  0.83551140  0.88075130  0.61967824    -0.23110
C726        C  0.86108660  0.86031770  0.64363043     0.19780
F727        F  0.86326091  0.86903472  0.68193263    -0.13070
F728        F  0.91207286  0.81391993  0.65083636    -0.15430
F729        F  0.80884945  0.89072329  0.55654318    -0.15440
F730        F  0.85795246  0.83620494  0.52557152    -0.13070
C731        C  0.77886066  0.72010656  0.48075375     0.24940
C732        C  0.80623101  0.72719779  0.51038260    -0.23170
C733        C  0.79521714  0.75162386  0.54155424     0.19850
C734        C  0.75838676  0.76937145  0.54256538     0.24880
C735        C  0.73078177  0.76221878  0.51312889    -0.23110
C736        C  0.74134666  0.73700843  0.48237107     0.19780
F737        F  0.71528118  0.72849746  0.45389486    -0.13070
F738        F  0.78828387  0.69665609  0.45032248    -0.15430
F739        F  0.75069494  0.79518642  0.57153300    -0.15440
F740        F  0.82091091  0.76020786  0.57033883    -0.13070
C741        C  0.10736793  0.89310144  0.59766561     0.24940
C742        C  0.11658639  0.88896240  0.63702289    -0.23170
C743        C  0.10878526  0.85388929  0.65490134     0.19850
C744        C  0.08998217  0.82422947  0.63424639     0.24880
C745        C  0.07826940  0.82960119  0.59559496    -0.23110
C746        C  0.08776923  0.86412460  0.57745549     0.19780
F747        F  0.07810763  0.86999811  0.54001742    -0.13070
F748        F  0.11669923  0.92579727  0.57882601    -0.15430
F749        F  0.08161115  0.79103354  0.65262395    -0.15440
F750        F  0.11759862  0.84902795  0.69271834    -0.13070
C751        C  0.17529496  0.76379227  0.52342199     0.24940
C752        C  0.16780615  0.72996178  0.50180486    -0.23170
C753        C  0.19846883  0.71275453  0.48030930     0.19850
C754        C  0.23628027  0.72889953  0.48116517     0.24880
C755        C  0.24363409  0.76248125  0.50331666    -0.23110
C756        C  0.21273041  0.77986563  0.52413639     0.19780
F757        F  0.21857079  0.81323779  0.54429627    -0.13070
F758        F  0.14581292  0.78223544  0.54277288    -0.15430
F759        F  0.26581312  0.71150971  0.46096521    -0.15440
F760        F  0.19200858  0.68005489  0.45927970    -0.13070
C761        C  0.88258074  0.55397360  0.61020412     0.24940
C762        C  0.91456064  0.57877412  0.61463393    -0.23170
C763        C  0.93616407  0.57840383  0.64918000     0.19850
C764        C  0.92812057  0.55142045  0.67770462     0.24880
C765        C  0.89781600  0.52463570  0.67229377    -0.23110
C766        C  0.87384949  0.52750555  0.63904785     0.19780
F767        F  0.84366571  0.50263017  0.63324660    -0.13070
F768        F  0.86075939  0.55444079  0.57744045    -0.15430
F769        F  0.95215862  0.54925184  0.70882268    -0.15440
F770        F  0.96680621  0.60269200  0.65410952    -0.13070
C771        C  0.01710779  0.65626868  0.69673796     0.24940
C772        C  0.99027819  0.68403832  0.68360453    -0.23170
C773        C  0.96161193  0.69864468  0.70931908     0.19850
C774        C  0.96010793  0.68606234  0.74751775     0.24880
C775        C  0.98670448  0.65802056  0.76052296    -0.23110
C776        C  0.01482000  0.64284210  0.73444922     0.19780
F777        F  0.03922588  0.61383987  0.74493556    -0.13070
F778        F  0.04396146  0.64007219  0.67228177    -0.15430
F779        F  0.93309470  0.70186707  0.77200662    -0.15440
F780        F  0.93533606  0.72549944  0.69760509    -0.13070
C781        C  0.85801783  0.46530970  0.85206643     0.24940
C782        C  0.87277391  0.39173082  0.83455221    -0.23170
C783        C  0.82777502  0.37024433  0.82026703     0.19850
C784        C  0.78357922  0.39646336  0.82035385     0.24880
C785        C  0.77625411  0.44439057  0.83563013    -0.23110
C786        C  0.81103774  0.47688628  0.84655779     0.19780
F787        F  0.80146731  0.51470871  0.85088997    -0.13070
F788        F  0.88230952  0.49579112  0.86006634    -0.15430
F789        F  0.75067383  0.37567075  0.81340029    -0.15440
F790        F  0.82665323  0.33225732  0.81078824    -0.13070
C791        C  0.89089724  0.33300645  0.15349944     0.24940
C792        C  0.91667680  0.31060426  0.13058789    -0.23170
C793        C  0.91467139  0.31406442  0.08993826     0.19850
C794        C  0.89120332  0.34241850  0.07320677     0.24880
C795        C  0.86731864  0.36624228  0.09643136    -0.23110
C796        C  0.86568362  0.35961101  0.13641042     0.19780
F797        F  0.83999317  0.37933729  0.15921002    -0.13070
F798        F  0.89154817  0.33098603  0.19259844    -0.15430
F799        F  0.89085831  0.34578154  0.03419061    -0.15440
F800        F  0.93682393  0.29094627  0.06643391    -0.13070
C801        C  0.39084003  0.12181688  0.60721204     0.24940
C802        C  0.35887033  0.10832202  0.58543230    -0.23170
C803        C  0.34477734  0.07088435  0.59121790     0.19850
C804        C  0.36331331  0.04669848  0.61741265     0.24880
C805        C  0.39564127  0.05992066  0.63871801    -0.23110
C806        C  0.40856568  0.09799380  0.63439554     0.19780
F807        F  0.43891114  0.11169624  0.65587938    -0.13070
F808        F  0.40543259  0.15755801  0.60136759    -0.15430
F809        F  0.34979349  0.01037570  0.62193425    -0.15440
F810        F  0.31426448  0.05716488  0.56994272    -0.13070
C811        C  0.63198950  0.07505745  0.60767993     0.24940
C812        C  0.61151173  0.10441297  0.58862841    -0.23170
C813        C  0.57145028  0.11048714  0.59725670     0.19850
C814        C  0.55157948  0.08592127  0.62194349     0.24880
C815        C  0.57153801  0.05559692  0.63941298    -0.23110
C816        C  0.61214896  0.05111004  0.63336415     0.19780
F817        F  0.63222187  0.02277577  0.65141193    -0.13070
F818        F  0.67043147  0.06804026  0.59968986    -0.15430
F819        F  0.51276902  0.09175528  0.62890211    -0.15440
F820        F  0.55113146  0.13931352  0.58024610    -0.13070
C821        C  0.87238873  0.32471613  0.37536301     0.24940
C822        C  0.88044771  0.32607589  0.41522807    -0.23170
C823        C  0.86002219  0.35272004  0.43862791     0.19850
C824        C  0.83423323  0.37923112  0.42216054     0.24880
C825        C  0.83051179  0.38163096  0.38154745    -0.23110
C826        C  0.84886930  0.35298441  0.35845180     0.19780
F827        F  0.84629102  0.35348587  0.31936951    -0.13070
F828        F  0.88829647  0.29676214  0.35242010    -0.15430
F829        F  0.81390670  0.40359925  0.44599946    -0.15440
F830        F  0.86446381  0.35258569  0.47759931    -0.13070
C831        C  0.00340684  0.19958883  0.29137884     0.24940
C832        C  0.98826480  0.22348119  0.32112574    -0.23170
C833        C  0.97236184  0.25943229  0.31157876     0.19850
C834        C  0.96990284  0.27083459  0.27311211     0.24880
C835        C  0.98460288  0.24705447  0.24319532    -0.23110
C836        C  0.00184828  0.21144589  0.25265067     0.19780
F837        F  0.01696179  0.18818138  0.22437847    -0.13070
F838        F  0.01938793  0.16487440  0.29975948    -0.15430
F839        F  0.95478037  0.30604338  0.26518384    -0.15440
F840        F  0.96117565  0.28449435  0.33999208    -0.13070
C841        C  0.08490248  0.05141569  0.66324902     0.24940
C842        C  0.11238401  0.02674347  0.64537932    -0.23170
C843        C  0.11973815  0.02975874  0.60558429     0.19850
C844        C  0.09887703  0.05608704  0.58361602     0.24880
C845        C  0.07107412  0.08050703  0.60123016    -0.23110
C846        C  0.06475018  0.07866969  0.64133581     0.19780
F847        F  0.03780313  0.10205711  0.65882735    -0.13070
F848        F  0.07637020  0.04787139  0.70132289    -0.15430
F849        F  0.10586156  0.05780475  0.54512069    -0.15440
F850        F  0.14590827  0.00574475  0.58773295    -0.13070
C851        C  0.17932060  0.15292172  0.52995375     0.24940
C852        C  0.16678263  0.18502769  0.50912241    -0.23170
C853        C  0.19482604  0.20765403  0.49031336     0.19850
C854        C  0.23494815  0.19848977  0.49278556     0.24880
C855        C  0.24748629  0.16625060  0.51367390    -0.23110
C856        C  0.21915465  0.14341095  0.53193083     0.19780
F857        F  0.22988300  0.11089853  0.55046805    -0.13070
F858        F  0.15271314  0.12979405  0.54719651    -0.15430
F859        F  0.26158594  0.22135210  0.47524429    -0.15440
F860        F  0.18341298  0.23901292  0.47028256    -0.13070
C861        C  0.84439895  0.08192803  0.58760997     0.24940
C862        C  0.88566744  0.07928991  0.58664594    -0.23170
C863        C  0.90449662  0.04840227  0.60435177     0.19850
C864        C  0.88251203  0.02000700  0.62203918     0.24880
C865        C  0.84109059  0.02100746  0.62091608    -0.23110
C866        C  0.82215393  0.05266533  0.60427579     0.19780
F867        F  0.78237680  0.05417729  0.60212124    -0.13070
F868        F  0.82566187  0.11168923  0.57051221    -0.15430
F869        F  0.90181185  0.99074097  0.63944645    -0.15440
F870        F  0.94431340  0.04573544  0.60453758    -0.13070
C871        C  0.78368273  0.16452746  0.47702837     0.24940
C872        C  0.80044211  0.19158234  0.50240737    -0.23170
C873        C  0.77739186  0.20661816  0.53318064     0.19850
C874        C  0.73863375  0.19425579  0.53853614     0.24880
C875        C  0.72242220  0.16629817  0.51358181    -0.23110
C876        C  0.74566225  0.15135240  0.48301702     0.19780
F877        F  0.73221176  0.12263218  0.45958646    -0.13070
F878        F  0.80487759  0.14895439  0.44755605    -0.15430
F879        F  0.71695335  0.20980928  0.56786181    -0.15440
F880        F  0.79243624  0.23318113  0.55823299    -0.13070
C881        C  0.94565494  0.33836293  0.63182290     0.24940
C882        C  0.91457132  0.32919478  0.60682047    -0.23170
C883        C  0.87746690  0.34570975  0.61269627     0.19850
C884        C  0.87241385  0.37366264  0.64182365     0.24880
C885        C  0.90430540  0.38432655  0.66544194    -0.23110
C886        C  0.94059182  0.36583746  0.66100571     0.19780
F887        F  0.97150187  0.37568601  0.68379422    -0.13070
F888        F  0.98080242  0.32006843  0.62821223    -0.15430
F889        F  0.83701026  0.39133870  0.64618870    -0.15440
F890        F  0.84692207  0.33592157  0.58943336    -0.13070
C891        C  0.93232453  0.26628354  0.68762494     0.24940
C892        C  0.96869180  0.24850369  0.67857522    -0.23170
C893        C  0.99857777  0.25265307  0.70621775     0.19850
C894        C  0.99254157  0.27403552  0.74109052     0.24880
C895        C  0.95723081  0.29572782  0.74870066    -0.23110
C896        C  0.92708638  0.29013185  0.72063182     0.19780
F897        F  0.89175572  0.30781354  0.72337750    -0.13070
F898        F  0.90132229  0.26242068  0.66329410    -0.15430
F899        F  0.02141662  0.27116855  0.76769768    -0.15440
F900        F  0.03365361  0.23476934  0.70030666    -0.13070
C901        C  0.36426609  0.81566970  0.91958217     0.24940
C902        C  0.33460821  0.83420659  0.94136862    -0.23170
C903        C  0.32658477  0.87342310  0.93485404     0.19850
C904        C  0.34964697  0.89426423  0.90907407     0.24880
C905        C  0.38071572  0.87609043  0.88923922    -0.23110
C906        C  0.38693931  0.83643198  0.89355088     0.19780
F907        F  0.41623873  0.81818939  0.87372222    -0.13070
F908        F  0.37358194  0.77827122  0.92592770    -0.15430
F909        F  0.34193644  0.93217254  0.90372291    -0.15440
F910        F  0.29782685  0.89194489  0.95518337    -0.13070
C911        C  0.41338218  0.11392006  0.93880460     0.24940
C912        C  0.37306023  0.12145764  0.94314867    -0.23170
C913        C  0.34614000  0.10390688  0.91780998     0.19850
C914        C  0.35922457  0.07682233  0.89031165     0.24880
C915        C  0.39919114  0.06667677  0.88856572    -0.23110
C916        C  0.42631934  0.08638955  0.91201063     0.19780
F917        F  0.46537808  0.07878713  0.90909379    -0.13070
F918        F  0.43992535  0.13149111  0.96237166    -0.15430
F919        F  0.33269426  0.05888787  0.86704670    -0.15440
F920        F  0.30702196  0.11062592  0.92183034    -0.13070
C921        C  0.07820344  0.54791393  0.39291637     0.24940
C922        C  0.09087398  0.57158110  0.42343887    -0.23170
C923        C  0.13003748  0.56930190  0.43621514     0.19850
C924        C  0.15595085  0.54238778  0.41939608     0.24880
C925        C  0.14309935  0.51864211  0.38887796    -0.23110
C926        C  0.10424984  0.52189274  0.37548819     0.19780
F927        F  0.09123947  0.49863671  0.34631454    -0.13070
F928        F  0.04071097  0.55022567  0.37986376    -0.15430
F929        F  0.19305931  0.53898594  0.43321494    -0.15440
F930        F  0.14277228  0.59258941  0.46546541    -0.13070
C931        C  0.12223736  0.31821348  0.39662315     0.24940
C932        C  0.08489198  0.32730755  0.41258229    -0.23170
C933        C  0.07104396  0.36536557  0.41011799     0.19850
C934        C  0.09406816  0.39364083  0.39352377     0.24880
C935        C  0.13211155  0.38516079  0.37955209    -0.23110
C936        C  0.14563120  0.34698562  0.38034542     0.19780
F937        F  0.18199925  0.33783215  0.36682168    -0.13070
F938        F  0.13686142  0.28183798  0.39787308    -0.15430
F939        F  0.07902416  0.42981066  0.39147540    -0.15440
F940        F  0.03502122  0.37563239  0.42380586    -0.13070
C941        C  0.06944651  0.52565744  0.64425501     0.24940
C942        C  0.11014894  0.52594336  0.65053772    -0.23170
C943        C  0.13338850  0.55483255  0.63477360     0.19850
C944        C  0.11632715  0.58190793  0.61068598     0.24880
C945        C  0.07613347  0.57944395  0.60165251    -0.23110
C946        C  0.05266379  0.55167877  0.61923310     0.19780
F947        F  0.01361763  0.54935493  0.61175659    -0.13070
F948        F  0.04645171  0.49845109  0.66044153    -0.15430
F949        F  0.13940270  0.60895282  0.59434364    -0.15440
F950        F  0.17282157  0.55502548  0.64045542    -0.13070
C951        C  0.13292436  0.35444931  0.62939999     0.24940
C952        C  0.11243939  0.38839149  0.63911559    -0.23170
C953        C  0.07305146  0.39237748  0.62712610     0.19850
C954        C  0.05600746  0.36537247  0.60257517     0.24880
C955        C  0.07634425  0.33160892  0.59235897    -0.23110
C956        C  0.11471042  0.32584941  0.60671425     0.19780
F957        F  0.13507281  0.29322598  0.59764018    -0.13070
F958        F  0.17073458  0.34951567  0.64065913    -0.15430
F959        F  0.01918167  0.37223855  0.58932729    -0.15440
F960        F  0.05090719  0.42302806  0.63878926    -0.13070
C961        C  0.05312532  0.58865088  0.14338642     0.24940
C962        C  0.05215068  0.62667781  0.12999818    -0.23170
C963        C  0.07778084  0.63777506  0.10062580     0.19850
C964        C  0.10370549  0.61073506  0.08428723     0.24880
C965        C  0.10285863  0.57220993  0.09617921    -0.23110
C966        C  0.07786299  0.56138440  0.12607859     0.19780
F967        F  0.07757682  0.52454310  0.13853532    -0.13070
F968        F  0.02866347  0.57762428  0.17214021    -0.15430
F969        F  0.12884094  0.62172632  0.05608889    -0.15440
F970        F  0.07696828  0.67427555  0.08729055    -0.13070
C971        C  0.09173273  0.37314483  0.13897560     0.24940
C972        C  0.10052843  0.36866710  0.09957221    -0.23170
C973        C  0.09018334  0.33458774  0.07991946     0.19850
C974        C  0.06884273  0.30633468  0.09878141     0.24880
C975        C  0.05746521  0.31192593  0.13755510    -0.23110
C976        C  0.06996831  0.34506139  0.15783099     0.19780
F977        F  0.05835642  0.35162571  0.19490940    -0.13070
F978        F  0.10356249  0.40505301  0.15886617    -0.15430
F979        F  0.05674492  0.27471970  0.07854326    -0.15440
F980        F  0.10081291  0.32877593  0.04242473    -0.13070
C981        C  0.23295110  0.43513321  0.21518006     0.24940
C982        C  0.21581260  0.46426250  0.19275386    -0.23170
C983        C  0.18944593  0.49022949  0.21065434     0.19850
C984        C  0.17961275  0.48663882  0.24965220     0.24880
C985        C  0.19666908  0.45755942  0.27218870    -0.23110
C986        C  0.22365228  0.43197788  0.25452819     0.19780
F987        F  0.24123355  0.40406091  0.27541752    -0.13070
F988        F  0.25884377  0.40971570  0.19902758    -0.15430
F989        F  0.15178495  0.51061837  0.26482951    -0.15440
F990        F  0.17125157  0.51784318  0.18985972    -0.13070
C991        C  0.34677575  0.33488781  0.90243722     0.24940
C992        C  0.34845527  0.37493296  0.90895077    -0.23170
C993        C  0.37982713  0.39554557  0.89306925     0.19850
C994        C  0.41019923  0.37626819  0.87335596     0.24880
C995        C  0.41095443  0.33566137  0.87068257    -0.23110
C996        C  0.37814472  0.31529781  0.88444354     0.19780
F997        F  0.37741994  0.27624664  0.88301321    -0.13070
F998        F  0.31581004  0.31430456  0.91538691    -0.15430
F999        F  0.43947912  0.39739410  0.85769417    -0.15440
F1000       F  0.38112222  0.43451758  0.89671807    -0.13070
C1001       C  0.29472973  0.28941003  0.00230031     0.24940
C1002       C  0.25486085  0.29064601  0.01242599    -0.23170
C1003       C  0.23669088  0.25758596  0.02663790     0.19850
C1004       C  0.25809019  0.22303858  0.02894993     0.24880
C1005       C  0.29776219  0.22169119  0.01742485    -0.23110
C1006       C  0.31595968  0.25525291  0.00449363     0.19780
F1007       F  0.35457543  0.25502460  0.99454338    -0.13070
F1008       F  0.31349431  0.32198034  0.99176162    -0.15430
F1009       F  0.24003558  0.19083679  0.04155379    -0.15440
F1010       F  0.19850228  0.25876131  0.03791162    -0.13070
C1011       C  0.06645055  0.57563241  0.86400365     0.24940
C1012       C  0.05596570  0.61258838  0.87789964    -0.23170
C1013       C  0.06904067  0.62507802  0.91443851     0.19850
C1014       C  0.09134586  0.60052206  0.93723466     0.24880
C1015       C  0.10004817  0.56307822  0.92397792    -0.23110
C1016       C  0.08842335  0.55105270  0.88696002     0.19780
F1017       F  0.09817168  0.51537668  0.87327434    -0.13070
F1018       F  0.05276409  0.56228215  0.82948590    -0.15430
F1019       F  0.10418623  0.61304090  0.97233982    -0.15440
F1020       F  0.05831265  0.66023197  0.92869432    -0.13070
C1021       C  0.01616707  0.35814902  0.91105720     0.24940
C1022       C  0.01592636  0.36167787  0.87030164    -0.23170
C1023       C  0.04975783  0.37805398  0.85337010     0.19850
C1024       C  0.08217922  0.39005091  0.87596002     0.24880
C1025       C  0.08238276  0.38647167  0.91640490    -0.23110
C1026       C  0.04855099  0.37075035  0.93361932     0.19780
F1027       F  0.04679017  0.36747500  0.97259174    -0.13070
F1028       F  0.98526206  0.34198403  0.92939298    -0.15430
F1029       F  0.11233083  0.40796566  0.85833333    -0.15440
F1030       F  0.05082098  0.38466493  0.81486717    -0.13070
C1031       C  0.20240355  0.48524263  0.76678210     0.24940
C1032       C  0.17972138  0.45358699  0.75344337    -0.23170
C1033       C  0.17365628  0.42284534  0.77865827     0.19850
C1034       C  0.18903065  0.42401528  0.81581960     0.24880
C1035       C  0.20726197  0.45761254  0.83055933    -0.23110
C1036       C  0.21464715  0.48787400  0.80530946     0.19780
F1037       F  0.23397202  0.51987711  0.81769936    -0.13070
F1038       F  0.21256977  0.51400594  0.74272413    -0.15430
F1039       F  0.18397996  0.39250566  0.83792952    -0.15440
F1040       F  0.15067357  0.39242402  0.76882726    -0.13070
C1041       C  0.38143778  0.57241693  0.85398209     0.24940
C1042       C  0.40720252  0.59695034  0.87408695    -0.23170
C1043       C  0.40456962  0.60018662  0.91451989     0.19850
C1044       C  0.37783018  0.57792545  0.93478614     0.24880
C1045       C  0.35235267  0.55303575  0.91490566    -0.23110
C1046       C  0.35356866  0.55106689  0.87428830     0.19780
F1047       F  0.32907356  0.52710220  0.85455619    -0.13070
F1048       F  0.38458459  0.56779751  0.81509259    -0.15430
F1049       F  0.37675274  0.58070014  0.97388516    -0.15440
F1050       F  0.42956045  0.62347623  0.93448092    -0.13070
C1051       C  0.30277029  0.69071743  0.98836153     0.24940
C1052       C  0.28769884  0.71881371  0.01423513    -0.23170
C1053       C  0.25731964  0.70828312  0.03962316     0.19850
C1054       C  0.24226061  0.67056378  0.03890724     0.24880
C1055       C  0.25692306  0.64272662  0.01242560    -0.23110
C1056       C  0.28741782  0.65334161  0.98728212     0.19780
F1057       F  0.30357216  0.62698424  0.96254328    -0.13070
F1058       F  0.33330954  0.69915169  0.96473925    -0.15430
F1059       F  0.21275470  0.66150666  0.06351896    -0.15440
F1060       F  0.24155278  0.73478563  0.06449016    -0.13070
C1061       C  0.87988702  0.81623222  0.37284035     0.24940
C1062       C  0.89400114  0.82414043  0.41047023    -0.23170
C1063       C  0.88767073  0.86089528  0.42692533     0.19850
C1064       C  0.86966404  0.88959449  0.40566611     0.24880
C1065       C  0.85878640  0.88272039  0.36696284    -0.23110
C1066       C  0.86280200  0.84549462  0.35108065     0.19780
F1067       F  0.85211889  0.83797871  0.31396339    -0.13070
F1068       F  0.88421480  0.78074866  0.35638118    -0.15430
F1069       F  0.86371496  0.92467331  0.42269314    -0.15440
F1070       F  0.89910735  0.86930397  0.46364072    -0.13070
C1071       C  0.93182414  0.04884932  0.37734789     0.24940
C1072       C  0.90714498  0.07563946  0.39622547    -0.23170
C1073       C  0.86701547  0.07601375  0.38736119     0.19850
C1074       C  0.85089905  0.04786955  0.36314412     0.24880
C1075       C  0.87503479  0.01942219  0.34574463    -0.23110
C1076       C  0.91605203  0.02158067  0.35151846     0.19780
F1077       F  0.94067910  0.99622098  0.33339900    -0.13070
F1078       F  0.97113761  0.04918472  0.38378549    -0.15430
F1079       F  0.81121708  0.04682652  0.35962964    -0.15440
F1080       F  0.84279355  0.10242244  0.40403361    -0.13070
C1081       C  0.10729934  0.84709310  0.43178363     0.24940
C1082       C  0.08432540  0.82081870  0.41068361    -0.23170
C1083       C  0.08629896  0.82044575  0.37003585     0.19850
C1084       C  0.10842240  0.84824189  0.35085386     0.24880
C1085       C  0.12935569  0.87605079  0.37216741    -0.23110
C1086       C  0.12972107  0.87440754  0.41270685     0.19780
F1087       F  0.15013674  0.90083043  0.43383206    -0.13070
F1088       F  0.10802136  0.84624235  0.47091737    -0.15430
F1089       F  0.10742664  0.84956249  0.31171133    -0.15440
F1090       F  0.06518892  0.79450248  0.34899971    -0.13070
C1091       C  0.06975377  0.06721282  0.37165784     0.24940
C1092       C  0.07774361  0.07426673  0.41096489    -0.23170
C1093       C  0.10634267  0.05244080  0.42972610     0.19850
C1094       C  0.12605225  0.02303659  0.40978378     0.24880
C1095       C  0.11717940  0.01505345  0.37090930    -0.23110
C1096       C  0.08923269  0.03737657  0.35172708     0.19780
F1097       F  0.08011780  0.02950041  0.31427371    -0.13070
F1098       F  0.04228254  0.08838475  0.35308174    -0.15430
F1099       F  0.15330768  0.00170466  0.42852778    -0.15440
F1100       F  0.11535468  0.05988704  0.46723779    -0.13070
C1101       C  0.58049463  0.38710388  0.11369709     0.24940
C1102       C  0.61284032  0.36869870  0.09633797    -0.23170
C1103       C  0.61578024  0.32834148  0.09660221     0.19850
C1104       C  0.58533140  0.30648603  0.11199479     0.24880
C1105       C  0.55204949  0.32490479  0.12793121    -0.23110
C1106       C  0.55059731  0.36540628  0.12990141     0.19780
F1107       F  0.51947534  0.38394587  0.14645495    -0.13070
F1108       F  0.57772276  0.42612272  0.11460752    -0.15430
F1109       F  0.58715453  0.26749873  0.10889824    -0.15440
F1110       F  0.64688961  0.31009345  0.07970586    -0.13070
C1111       C  0.40829380  0.31833970  0.07355722     0.24940
C1112       C  0.40961616  0.30927926  0.11299401    -0.23170
C1113       C  0.38006172  0.32343393  0.13781653     0.19850
C1114       C  0.35133249  0.34857806  0.12397339     0.24880
C1115       C  0.35230384  0.36042475  0.08529160    -0.23110
C1116       C  0.38038673  0.34423205  0.05997958     0.19780
F1117       F  0.38125649  0.35390482  0.02215782    -0.13070
F1118       F  0.43574978  0.30392617  0.04865630    -0.15430
F1119       F  0.32419621  0.36332314  0.14898522    -0.15440
F1120       F  0.38091655  0.31550798  0.17605563    -0.13070
C1121       C  0.61034646  0.57085168  0.13406128     0.24940
C1122       C  0.60450343  0.55393810  0.09705564    -0.23170
C1123       C  0.56905889  0.56104434  0.07786179     0.19850
C1124       C  0.54049962  0.58474979  0.09458499     0.24880
C1125       C  0.54547969  0.60028108  0.13213255    -0.23110
C1126       C  0.58089669  0.59352330  0.15156374     0.19780
F1127       F  0.58650576  0.60771635  0.18790104    -0.13070
F1128       F  0.64407010  0.56459258  0.15388271    -0.15430
F1129       F  0.50768858  0.59255983  0.07380317    -0.15440
F1130       F  0.56202934  0.54555620  0.04244306    -0.13070
C1131       C  0.36779229  0.59243148  0.08328211     0.24940
C1132       C  0.35431714  0.55849684  0.10012968    -0.23170
C1133       C  0.36346220  0.55122847  0.13885974     0.19850
C1134       C  0.38864981  0.57587102  0.15936372     0.24880
C1135       C  0.40424513  0.60852746  0.14164723    -0.23110
C1136       C  0.39280217  0.61717821  0.10379577     0.19780
F1137       F  0.40812554  0.64814938  0.08581966    -0.13070
F1138       F  0.35657921  0.60161572  0.04701356    -0.15430
F1139       F  0.39977134  0.56674544  0.19571165    -0.15440
F1140       F  0.34861874  0.51984258  0.15647763    -0.13070
C1141       C  0.55967492  0.07907493  0.10844720     0.24940
C1142       C  0.58250076  0.06320322  0.13789969    -0.23170
C1143       C  0.62284562  0.07192166  0.14004062     0.19850
C1144       C  0.64059138  0.09369176  0.11119366     0.24880
C1145       C  0.61799244  0.10735282  0.08048842    -0.23110
C1146       C  0.57719220  0.10126360  0.08025823     0.19780
F1147       F  0.55454880  0.11549748  0.05152649    -0.13070
F1148       F  0.52028404  0.07317619  0.10698747    -0.15430
F1149       F  0.67999671  0.09942741  0.11194730    -0.15440
F1150       F  0.64536664  0.05776906  0.16886641    -0.13070
C1151       C  0.38119527  0.04709778  0.10798592     0.24940
C1152       C  0.40145429  0.06451968  0.13865129    -0.23170
C1153       C  0.40154884  0.10494999  0.14264139     0.19850
C1154       C  0.38348129  0.12773789  0.11481465     0.24880
C1155       C  0.36436959  0.11024317  0.08322318    -0.23110
C1156       C  0.36210943  0.06971591  0.08095319     0.19780
F1157       F  0.34275812  0.05200311  0.05138459    -0.13070
F1158       F  0.37994222  0.00814985  0.10421411    -0.15430
F1159       F  0.38698011  0.16662696  0.11735215    -0.15440
F1160       F  0.42102419  0.12234458  0.17230857    -0.13070
C1161       C  0.46153560  0.20795123  0.22417036     0.24940
C1162       C  0.48647642  0.21427192  0.19243275    -0.23170
C1163       C  0.51478652  0.18627465  0.18247427     0.19850
C1164       C  0.51820063  0.15273248  0.20365147     0.24880
C1165       C  0.49275250  0.14574181  0.23482121    -0.23110
C1166       C  0.46442176  0.17374385  0.24501940     0.19780
F1167       F  0.43951505  0.16789790  0.27498752    -0.13070
F1168       F  0.43457198  0.23493124  0.23506000    -0.15430
F1169       F  0.54480809  0.12583452  0.19180798    -0.15440
F1170       F  0.53805390  0.19050566  0.15091924    -0.13070
C1171       C  0.35726431  0.87973105  0.44528423     0.24940
C1172       C  0.34906376  0.84026389  0.44031408    -0.23170
C1173       C  0.36221916  0.82084519  0.40686763     0.19850
C1174       C  0.38494050  0.84019889  0.37969986     0.24880
C1175       C  0.39527301  0.87909316  0.38601181    -0.23110
C1176       C  0.38069961  0.89874579  0.41878210     0.19780
F1177       F  0.38910910  0.93642417  0.42525171    -0.13070
F1178       F  0.34369831  0.89954763  0.47679244    -0.15430
F1179       F  0.39846581  0.82037817  0.34821552    -0.15440
F1180       F  0.35512083  0.78268643  0.40167270    -0.13070
C1181       C  0.35986115  0.07137407  0.44521822     0.24940
C1182       C  0.36476829  0.11144801  0.44774100    -0.23170
C1183       C  0.38866341  0.12993950  0.42078568     0.19850
C1184       C  0.40787088  0.10821641  0.39180989     0.24880
C1185       C  0.40391323  0.06785426  0.39029552    -0.23110
C1186       C  0.37940457  0.04977674  0.41687031     0.19780
F1187       F  0.37394791  0.01116897  0.41498721    -0.13070
F1188       F  0.33684228  0.05306825  0.47113379    -0.15430
F1189       F  0.43141677  0.12628126  0.36619951    -0.15440
F1190       F  0.39434170  0.16855556  0.42333804    -0.13070
C1191       C  0.24564590  0.93603001  0.27421048     0.24940
C1192       C  0.23285073  0.95590699  0.30767726    -0.23170
C1193       C  0.25876659  0.98142966  0.32661618     0.19850
C1194       C  0.29654774  0.98720740  0.31231535     0.24880
C1195       C  0.30956804  0.96706066  0.27917229    -0.23110
C1196       C  0.28387662  0.94139096  0.26018553     0.19780
F1197       F  0.29592631  0.92144861  0.22820019    -0.13070
F1198       F  0.22111103  0.91167457  0.25504974    -0.15430
F1199       F  0.32134663  0.01056704  0.33245896    -0.15440
F1200       F  0.24805505  0.99959775  0.36008734    -0.13070
C1201       C  0.59920330  0.86657339  0.06645726     0.24940
C1202       C  0.63242622  0.84319792  0.07382278    -0.23170
C1203       C  0.64580347  0.84101672  0.11217617     0.19850
C1204       C  0.62597738  0.86100800  0.14217001     0.24880
C1205       C  0.59265897  0.88410064  0.13427999    -0.23110
C1206       C  0.58046816  0.88719719  0.09575279     0.19780
F1207       F  0.54919885  0.90932347  0.08585014    -0.13070
F1208       F  0.58301916  0.86873051  0.03082875    -0.15430
F1209       F  0.63960465  0.85774139  0.17878910    -0.15440
F1210       F  0.67821031  0.81996621  0.12070469    -0.13070
C1211       C  0.41434071  0.87147759  0.09677793     0.24940
C1212       C  0.39932077  0.87583796  0.13441836    -0.23170
C1213       C  0.36411128  0.85646830  0.14388659     0.19850
C1214       C  0.34370858  0.83487790  0.11587049     0.24880
C1215       C  0.35819764  0.83178204  0.07801758    -0.23110
C1216       C  0.39449499  0.84922903  0.06926714     0.19780
F1217       F  0.41080672  0.84507227  0.03358137    -0.13070
F1218       F  0.44856128  0.88840707  0.08637850    -0.15430
F1219       F  0.30901793  0.81840818  0.12540845    -0.15440
F1220       F  0.34858352  0.85921474  0.17998576    -0.13070
C1221       C  0.51548846  0.78021998  0.20278191     0.24940
C1222       C  0.49219296  0.79070223  0.23491832    -0.23170
C1223       C  0.46565997  0.76375632  0.24963091     0.19850
C1224       C  0.46264679  0.72689813  0.23264690     0.24880
C1225       C  0.48545216  0.71656183  0.19996213    -0.23110
C1226       C  0.51184624  0.74382997  0.18523894     0.19780
F1227       F  0.53279299  0.73609546  0.15258804    -0.13070
F1228       F  0.54009368  0.80616276  0.18670539    -0.15430
F1229       F  0.43761499  0.70121428  0.24841710    -0.15440
F1230       F  0.44272318  0.77311396  0.28054031    -0.13070
C1231       C  0.60258627  0.84423648  0.38263154     0.24940
C1232       C  0.58570850  0.88085004  0.39006814    -0.23170
C1233       C  0.59136683  0.89842267  0.42653640     0.19850
C1234       C  0.61157545  0.87916729  0.45533756     0.24880
C1235       C  0.62577674  0.84144125  0.44883222    -0.23110
C1236       C  0.62224717  0.82464456  0.41187166     0.19780
F1237       F  0.63601121  0.78851358  0.40456904    -0.13070
F1238       F  0.59869930  0.82654288  0.34758892    -0.15430
F1239       F  0.61677273  0.89733919  0.49001900    -0.15440
F1240       F  0.57745124  0.93439661  0.43453730    -0.13070
C1241       C  0.61260675  0.06829458  0.39590283     0.24940
C1242       C  0.57202170  0.06975900  0.39012999    -0.23170
C1243       C  0.54852387  0.09488463  0.41243490     0.19850
C1244       C  0.56554299  0.11748009  0.44154325     0.24880
C1245       C  0.60603140  0.11456601  0.44874797    -0.23110
C1246       C  0.62951266  0.09021966  0.42532375     0.19780
F1247       F  0.66822362  0.08510430  0.43295891    -0.13070
F1248       F  0.63545532  0.04377251  0.37458660    -0.15430
F1249       F  0.54246618  0.14101586  0.46369607    -0.15440
F1250       F  0.50922674  0.09715135  0.40623075    -0.13070
C1251       C  0.74428812  0.96950287  0.26050773     0.24940
C1252       C  0.75543184  0.95547124  0.29682598    -0.23170
C1253       C  0.72619440  0.94769357  0.32431508     0.19850
C1254       C  0.68663458  0.95280139  0.31542165     0.24880
C1255       C  0.67542671  0.96617604  0.27907331    -0.23110
C1256       C  0.70438382  0.97478326  0.25164933     0.19780
F1257       F  0.69397544  0.98722516  0.21615323    -0.13070
F1258       F  0.77195501  0.97734190  0.23351569    -0.15430
F1259       F  0.65904221  0.94497458  0.34254163    -0.15440
F1260       F  0.73602253  0.93609028  0.36029235    -0.13070
loop_ 
_geom_bond_atom_site_label_1 
_geom_bond_atom_site_label_2 
_geom_bond_distance 
_geom_bond_site_symmetry_2 
_ccdc_geom_bond_type 
O1          Zr37   2.426       .  S
O1           C12   1.289       .  A
O2          Zr36   2.445       .  S
O2           C13   1.293       .  A
O3           Zr9   2.417       .  S
O3           C14   1.288       .  A
O4           Zr9   2.411       .  S
O4           C15   1.287       .  A
O5          Zr39   2.432   1_545  S
O5           C15   1.291       .  A
O6          Zr38   2.445   1_545  S
O6           C14   1.295       .  A
O7           Zr9   2.443       .  S
O7           C13   1.294       .  A
O8           Zr9   2.456       .  S
O8           C12   1.294   1_545  A
Zr9          O10   2.341       .  S
Zr9          O11   2.333   1_545  S
Zr9          O19   2.336   1_545  S
Zr9          O17   2.334       .  S
O10         Zr36   2.332       .  S
O10         Zr39   2.342   1_545  S
O11         Zr37   2.340       .  S
O11         Zr38   2.349       .  S
C12        C1255   1.469       .  S
C13        C1165   1.479       .  S
C14        C1142   1.470       .  S
C15        C1242   1.452       .  S
H16          O17   0.964       .  S
O17         Zr36   2.334       .  S
O17         Zr38   2.318   1_545  S
H18          O19   0.965       .  S
O19         Zr37   2.343       .  S
O19         Zr39   2.342       .  S
O20         Zr36   2.452       .  S
O20          C43   1.295   1_545  A
O21         Zr37   2.445       .  S
O21          C44   1.294       .  A
O22         Zr38   2.459   1_545  S
O22          C45   1.297       .  A
O23         Zr39   2.452   1_545  S
O23          C46   1.295       .  A
O24         Zr39   2.442       .  S
O24          C47   1.295       .  A
O25         Zr38   2.444       .  S
O25          C48   1.295       .  A
O26         Zr40   2.411       .  S
O26          C49   1.286       .  A
O27         Zr40   2.411       .  S
O27          C50   1.287       .  A
O28         Zr38   2.462       .  S
O28          C49   1.298       .  A
O29         Zr39   2.453       .  S
O29          C50   1.296       .  A
O30         Zr36   2.407       .  S
O30          C45   1.286       .  A
O31         Zr37   2.427       .  S
O31          C48   1.289       .  A
O32         Zr37   2.427       .  S
O32          C47   1.290       .  A
O33         Zr36   2.421       .  S
O33          C46   1.287       .  A
O34         Zr40   2.425       .  S
O34          C43   1.289       .  A
O35         Zr40   2.444       .  S
O35          C44   1.293       .  A
Zr36         O42   2.346   1_545  S
Zr36         O54   2.336   1_545  S
Zr37         O41   2.343       .  S
Zr37         O52   2.338       .  S
Zr38         O42   2.344       .  S
Zr38         O52   2.325       .  S
Zr39         O41   2.352       .  S
Zr39         O54   2.323       .  S
Zr40         O41   2.338       .  S
Zr40         O42   2.343       .  S
Zr40         O54   2.343       .  S
Zr40         O52   2.330       .  S
C43        C1195   1.472       .  S
C44        C1222   1.481       .  S
C45        C1152   1.466       .  S
C46        C1185   1.470       .  S
C47        C1232   1.482       .  S
C48        C1205   1.491       .  S
C49        C1212   1.489       .  S
C50        C1175   1.475       .  S
H51          O52   0.965       .  S
H53          O54   0.965       .  S
C55        C1225   1.495       .  S
C55          C56   1.415       .  A
C55          C60   1.416       .  A
C56          C57   1.404       .  A
C56          H61   1.083       .  S
C57        C1135   1.471       .  S
C57          C58   1.389       .  A
C58          C59   1.393       .  A
C58          H62   1.086       .  S
C59        C1125   1.483       .  S
C59          C60   1.406       .  A
C60          H63   1.082       .  S
C64        C1162   1.483       .  S
C64          C65   1.411       .  A
C64          C69   1.408       .  A
C65          C66   1.406       .  A
C65          H70   1.083       .  S
C66        C1112   1.477       .  S
C66          C67   1.396       .  A
C67          C68   1.393       .  A
C67          H71   1.085       .  S
C68        C1105   1.476       .  S
C68          C69   1.399       .  A
C69          H72   1.084       .  S
C73        C1192   1.482       .  S
C73          C74   1.406       .  A
C73          C78   1.413       .  A
C74          C75   1.394       .  A
C74          H79   1.084   1_565  S
C75        C1095   1.463   1_565  S
C75          C76   1.391       .  A
C76          C77   1.397       .  A
C76          H80   1.086       .  S
C77        C1085   1.474       .  S
C77          C78   1.408       .  A
C78          H81   1.083       .  S
C82        C1252   1.482       .  S
C82          C83   1.406       .  A
C82          C87   1.409       .  A
C83          C84   1.408       .  A
C83          H88   1.083   1_565  S
C84        C1075   1.488   1_565  S
C84          C85   1.398       .  A
C85          C86   1.397       .  A
C85          H89   1.083       .  S
C86        C1065   1.479       .  S
C86          C87   1.401       .  A
C87          H90   1.084       .  S
O91        Zr127   2.486       .  S
O91         C102   1.301       .  A
O92        Zr126   2.457       .  S
O92         C103   1.296       .  A
O93         Zr99   2.448       .  S
O93         C104   1.293       .  A
O94         Zr99   2.462       .  S
O94         C105   1.296       .  A
O95        Zr129   2.425       .  S
O95         C105   1.288       .  A
O96        Zr128   2.464       .  S
O96         C104   1.297   1_556  A
O97         Zr99   2.403       .  S
O97         C103   1.285       .  A
O98         Zr99   2.394       .  S
O98         C102   1.283       .  A
Zr99        O100   2.335       .  S
Zr99        O101   2.340       .  S
Zr99        O109   2.343       .  S
Zr99        O107   2.342       .  S
O100       Zr126   2.350       .  S
O100       Zr129   2.339       .  S
O101       Zr127   2.322       .  S
O101       Zr128   2.327   1_554  S
C102       C1132   1.467       .  S
C103        C965   1.457       .  S
C104       C1055   1.493       .  S
C105        C982   1.487       .  S
H106        O107   0.965       .  S
O107       Zr126   2.359       .  S
O107       Zr128   2.344   1_554  S
H108        O109   0.966       .  S
O109       Zr127   2.356       .  S
O109       Zr129   2.335       .  S
O110       Zr126   2.461   1_556  S
O110        C133   1.296       .  A
O111       Zr127   2.455   1_556  S
O111        C134   1.297       .  A
O112       Zr128   2.388       .  S
O112        C135   1.282       .  A
O113       Zr129   2.388       .  S
O113        C136   1.282       .  A
O114       Zr129   2.421       .  S
O114        C137   1.288       .  A
O115       Zr128   2.415       .  S
O115        C138   1.287       .  A
O116       Zr130   2.390       .  S
O116        C139   1.283       .  A
O117       Zr130   2.441       .  S
O117        C140   1.293   1_556  A
O118       Zr128   2.467       .  S
O118        C139   1.297       .  A
O119       Zr129   2.419       .  S
O119        C140   1.286       .  A
O120       Zr126   2.466   1_556  S
O120        C135   1.297       .  A
O121       Zr127   2.456   1_556  S
O121        C138   1.295       .  A
O122       Zr127   2.446       .  S
O122        C137   1.295       .  A
O123       Zr126   2.474       .  S
O123        C136   1.299       .  A
O124       Zr130   2.514       .  S
O124        C133   1.307       .  A
O125       Zr130   2.454       .  S
O125        C134   1.296       .  A
Zr126       O132   2.342   1_554  S
Zr126       O144   2.361       .  S
Zr127       O131   2.339       .  S
Zr127       O142   2.353   1_554  S
Zr128       O132   2.344       .  S
Zr128       O142   2.320       .  S
Zr129       O131   2.318       .  S
Zr129       O144   2.354       .  S
Zr130       O131   2.334   1_556  S
Zr130       O132   2.332       .  S
Zr130       O144   2.330   1_556  S
Zr130       O142   2.360       .  S
C133       C1025   1.518       .  S
C134        C992   1.484       .  S
C135       C1015   1.453       .  S
C136        C972   1.457       .  S
C137       C1115   1.474       .  S
C138       C1045   1.469       .  S
C139       C1035   1.483       .  S
C140       C1002   1.463       .  S
H141        O142   0.965       .  S
H143        O144   0.966       .  S
C145       C1032   1.494       .  S
C145        C146   1.410       .  A
C145        C150   1.423       .  A
C146        C147   1.390       .  A
C146        H151   1.082       .  S
C147        C942   1.456       .  S
C147        C148   1.385       .  A
C148        C149   1.389       .  A
C148        H152   1.086       .  S
C149        C952   1.482       .  S
C149        C150   1.407       .  A
C150        H153   1.079       .  S
C154        C985   1.493       .  S
C154        C155   1.416       .  A
C154        C159   1.409       .  A
C155        C156   1.411       .  A
C155        H160   1.083       .  S
C156        C935   1.487       .  S
C156        C157   1.399       .  A
C157        C158   1.391       .  A
C157        H161   1.085       .  S
C158        C925   1.469       .  S
C158        C159   1.397       .  A
C159        H162   1.083       .  S
C163       C1005   1.474       .  S
C163        C164   1.411       .  A
C163        C168   1.406   1_554  A
C164        C165   1.407       .  A
C164        H169   1.083       .  S
C165       C1155   1.478       .  S
C165        C166   1.394       .  A
C166        C167   1.391   1_554  A
C166        H170   1.085       .  S
C167        C912   1.467       .  S
C167        C168   1.395       .  A
C168        H171   1.084       .  S
C172       C1052   1.496       .  S
C172        C173   1.416       .  A
C172        C177   1.414   1_554  A
C173        C174   1.412       .  A
C173        H178   1.083       .  S
C174       C1215   1.489       .  S
C174        C175   1.395       .  A
C175        C176   1.391   1_554  A
C175        H179   1.085       .  S
C176        C902   1.481       .  S
C176        C177   1.406       .  A
C177        H180   1.083       .  S
O181       Zr217   2.423       .  S
O181        C192   1.288       .  A
O182       Zr216   2.426       .  S
O182        C193   1.289       .  A
O183       Zr189   2.461   1_455  S
O183        C194   1.297       .  A
O184       Zr189   2.465       .  S
O184        C195   1.298       .  A
O185       Zr219   2.421       .  S
O185        C195   1.290       .  A
O186       Zr218   2.420       .  S
O186        C194   1.289       .  A
O187       Zr189   2.441       .  S
O187        C193   1.294       .  A
O188       Zr189   2.444   1_455  S
O188        C192   1.293       .  A
Zr189       O190   2.343       .  S
Zr189       O191   2.333   1_655  S
Zr189       O199   2.350       .  S
Zr189       O197   2.368       .  S
O190       Zr216   2.340       .  S
O190       Zr219   2.336       .  S
O191       Zr217   2.348       .  S
O191       Zr218   2.352       .  S
C192       C1092   1.461       .  S
C193        C862   1.467       .  S
C194        C845   1.468       .  S
C195       C1072   1.473       .  S
H196        O197   0.966       .  S
O197       Zr216   2.335       .  S
O197       Zr218   2.342   1_655  S
H198        O199   0.965       .  S
O199       Zr217   2.331   1_655  S
O199       Zr219   2.345       .  S
O200       Zr216   2.420       .  S
O200        C223   1.287       .  A
O201       Zr217   2.423       .  S
O201        C224   1.288       .  A
O202       Zr218   2.519       .  S
O202        C225   1.306   1_455  A
O203       Zr219   2.469       .  S
O203        C226   1.299       .  A
O204       Zr219   2.447       .  S
O204        C227   1.294       .  A
O205       Zr218   2.442       .  S
O205        C228   1.293       .  A
O206       Zr220   2.458   1_455  S
O206        C229   1.298       .  A
O207       Zr220   2.481       .  S
O207        C230   1.302       .  A
O208       Zr218   2.404       .  S
O208        C229   1.286       .  A
O209       Zr219   2.418       .  S
O209        C230   1.288       .  A
O210       Zr216   2.434       .  S
O210        C225   1.290       .  A
O211       Zr217   2.450       .  S
O211        C228   1.294       .  A
O212       Zr217   2.466       .  S
O212        C227   1.296   1_455  A
O213       Zr216   2.395       .  S
O213        C226   1.283       .  A
O214       Zr220   2.420       .  S
O214        C223   1.289       .  A
O215       Zr220   2.451   1_455  S
O215        C224   1.296       .  A
Zr216       O222   2.313       .  S
Zr216       O234   2.338       .  S
Zr217       O221   2.340   1_455  S
Zr217       O232   2.339       .  S
Zr218       O222   2.307   1_455  S
Zr218       O232   2.363       .  S
Zr219       O221   2.344       .  S
Zr219       O234   2.339       .  S
Zr220       O221   2.325       .  S
Zr220       O222   2.331       .  S
Zr220       O234   2.352       .  S
Zr220       O232   2.346   1_655  S
C223        C882   1.452       .  S
C224        C932   1.490       .  S
C225        C892   1.526       .  S
C226        C872   1.481       .  S
C227        C832   1.485       .  S
C228        C852   1.477       .  S
C229        C955   1.472       .  S
C230        C822   1.480       .  S
H231        O232   0.966       .  S
H233        O234   0.965       .  S
C235        C875   1.486       .  S
C235        C236   1.403       .  A
C235        C240   1.415       .  A
C236        C237   1.392       .  A
C236        H241   1.084       .  S
C237       C1245   1.467       .  S
C237        C238   1.390       .  A
C238        C239   1.398       .  A
C238        H242   1.085       .  S
C239        C812   1.483       .  S
C239        C240   1.413       .  A
C240        H243   1.083       .  S
C244        C855   1.487       .  S
C244        C245   1.410       .  A
C244        C249   1.409       .  A
C245        C246   1.403       .  A
C245        H250   1.084       .  S
C246        C802   1.472       .  S
C246        C247   1.394       .  A
C247        C248   1.397       .  A
C247        H251   1.086       .  S
C248       C1182   1.471       .  S
C248        C249   1.404       .  A
C249        H252   1.084       .  S
C253        C835   1.489       .  S
C253        C254   1.408   1_655  A
C253        C258   1.418       .  A
C254        C255   1.402       .  A
C254        H259   1.084       .  S
C255        C975   1.470       .  S
C255        C256   1.389   1_455  A
C256        C257   1.393       .  A
C256        H260   1.085       .  S
C257        C792   1.493       .  S
C257        C258   1.415       .  A
C258        H261   1.083       .  S
C262        C895   1.566       .  S
C262        C263   1.427       .  A
C262        C267   1.443       .  A
C263        C264   1.414       .  A
C263        H268   1.073   1_655  S
C264       C1022   1.533   1_655  S
C264        C265   1.412       .  A
C265        C266   1.427       .  A
C265        H269   1.073       .  S
C266        C782   1.602       .  S
C266        C267   1.426       .  A
C267        H270   1.065       .  S
O271       Zr307   2.468   1_455  S
O271        C282   1.299       .  A
O272       Zr306   2.458   1_455  S
O272        C283   1.296       .  A
O273       Zr279   2.450       .  S
O273        C284   1.293       .  A
O274       Zr279   2.432       .  S
O274        C285   1.291   1_455  A
O275       Zr309   2.438       .  S
O275        C285   1.291       .  A
O276       Zr308   2.429       .  S
O276        C284   1.290       .  A
O277       Zr279   2.417       .  S
O277        C283   1.287       .  A
O278       Zr279   2.412       .  S
O278        C282   1.287       .  A
Zr279       O280   2.344   1_455  S
Zr279       O281   2.330       .  S
Zr279       O289   2.342   1_455  S
Zr279       O287   2.335       .  S
O280       Zr306   2.342       .  S
O280       Zr309   2.348       .  S
O281       Zr307   2.326   1_455  S
O281       Zr308   2.322       .  S
C282       C1082   1.473       .  S
C283        C922   1.462       .  S
C284        C752   1.477       .  S
C285        C712   1.470       .  S
H286        O287   0.965       .  S
O287       Zr306   2.359   1_455  S
O287       Zr308   2.341       .  S
H288        O289   0.966       .  S
O289       Zr307   2.344       .  S
O289       Zr309   2.343       .  S
O290       Zr306   2.464       .  S
O290        C313   1.297       .  A
O291       Zr307   2.451       .  S
O291        C314   1.295       .  A
O292       Zr308   2.399       .  S
O292        C315   1.285       .  A
O293       Zr309   2.411       .  S
O293        C316   1.286       .  A
O294       Zr309   2.424       .  S
O294        C317   1.289       .  A
O295       Zr308   2.414       .  S
O295        C318   1.287       .  A
O296       Zr310   2.433       .  S
O296        C319   1.290       .  A
O297       Zr310   2.424       .  S
O297        C320   1.290       .  A
O298       Zr308   2.437       .  S
O298        C319   1.291   1_455  A
O299       Zr309   2.454       .  S
O299        C320   1.294       .  A
O300       Zr306   2.435   1_455  S
O300        C315   1.293       .  A
O301       Zr307   2.448   1_455  S
O301        C318   1.296       .  A
O302       Zr307   2.444       .  S
O302        C317   1.295       .  A
O303       Zr306   2.459       .  S
O303        C316   1.296       .  A
O304       Zr310   2.425       .  S
O304        C313   1.288       .  A
O305       Zr310   2.405       .  S
O305        C314   1.285       .  A
Zr306       O312   2.328       .  S
Zr306       O324   2.356       .  S
Zr307       O311   2.331       .  S
Zr307       O322   2.355       .  S
Zr308       O312   2.321   1_455  S
Zr308       O322   2.334   1_455  S
Zr309       O311   2.321       .  S
Zr309       O324   2.353       .  S
Zr310       O311   2.330       .  S
Zr310       O312   2.310       .  S
Zr310       O324   2.341       .  S
Zr310       O322   2.341       .  S
C313        C762   1.474       .  S
C314        C722   1.459       .  S
C315        C945   1.457       .  S
C316        C702   1.460       .  S
C317       C1062   1.480       .  S
C318        C745   1.476       .  S
C319        C772   1.480       .  S
C320        C732   1.486       .  S
H321        O322   0.966       .  S
H323        O324   0.966       .  S
C325        C735   1.493       .  S
C325        C326   1.413       .  A
C325        C330   1.414       .  A
C326        C327   1.406       .  A
C326        H331   1.083       .  S
C327       C1235   1.481       .  S
C327        C328   1.395       .  A
C328        C329   1.389       .  A
C328        H332   1.085       .  S
C329        C695   1.469       .  S
C329        C330   1.401       .  A
C330        H333   1.083       .  S
C334        C755   1.481       .  S
C334        C335   1.409       .  A
C334        C339   1.412       .  A
C335        C336   1.403       .  A
C335        H340   1.084       .  S
C336       C1172   1.476       .  S
C336        C337   1.394       .  A
C337        C338   1.395       .  A
C337        H341   1.084       .  S
C338        C682   1.484       .  S
C338        C339   1.405       .  A
C339        H342   1.083       .  S
C343        C715   1.476       .  S
C343        C344   1.405   1_655  A
C343        C348   1.406       .  A
C344        C345   1.396       .  A
C344        H349   1.084       .  S
C345        C962   1.465       .  S
C345        C346   1.393   1_455  A
C346        C347   1.398       .  A
C346        H350   1.086       .  S
C347        C672   1.475       .  S
C347        C348   1.403       .  A
C348        H351   1.084       .  S
C352        C775   1.488       .  S
C352        C353   1.410   1_655  A
C352        C357   1.415       .  A
C353        C354   1.398       .  A
C353        H358   1.083       .  S
C354       C1012   1.466       .  S
C354        C355   1.386   1_455  A
C355        C356   1.392       .  A
C355        H359   1.086       .  S
C356        C665   1.478       .  S
C356        C357   1.408       .  A
C357        H360   1.083       .  S
O361       Zr397   2.408       .  S
O361        C372   1.286       .  A
O362       Zr396   2.462       .  S
O362        C373   1.297       .  A
O363       Zr369   2.463   1_556  S
O363        C374   1.298       .  A
O364       Zr369   2.436       .  S
O364        C375   1.292       .  A
O365       Zr399   2.421       .  S
O365        C375   1.288       .  A
O366       Zr398   2.421       .  S
O366        C374   1.288       .  A
O367       Zr369   2.431   1_556  S
O367        C373   1.293       .  A
O368       Zr369   2.465       .  S
O368        C372   1.298       .  A
Zr369       O370   2.338       .  S
Zr369       O371   2.314       .  S
Zr369       O379   2.348       .  S
Zr369       O377   2.349   1_554  S
O370       Zr396   2.344   1_554  S
O370       Zr399   2.317       .  S
O371       Zr397   2.347       .  S
O371       Zr398   2.343   1_554  S
C372       C1122   1.484       .  S
C373        C622   1.480       .  S
C374        C642   1.490       .  S
C375       C1102   1.463       .  S
H376        O377   0.965       .  S
O377       Zr396   2.362       .  S
O377       Zr398   2.313       .  S
H378        O379   0.966       .  S
O379       Zr397   2.337       .  S
O379       Zr399   2.340       .  S
O380       Zr396   2.579       .  S
O380        C403   1.311       .  A
O381       Zr397   2.411       .  S
O381        C404   1.286       .  A
O382       Zr398   2.529       .  S
O382        C405   1.313       .  A
O383       Zr399   2.450       .  S
O383        C406   1.293       .  A
O384       Zr399   2.434       .  S
O384        C407   1.290       .  A
O385       Zr398   2.469       .  S
O385        C408   1.298   1_556  A
O386       Zr400   2.459   1_556  S
O386        C409   1.297       .  A
O387       Zr400   2.498       .  S
O387        C410   1.305       .  A
O388       Zr398   2.407       .  S
O388        C409   1.287       .  A
O389       Zr399   2.398       .  S
O389        C410   1.284       .  A
O390       Zr396   2.449       .  S
O390        C405   1.281       .  A
O391       Zr397   2.440       .  S
O391        C408   1.292       .  A
O392       Zr397   2.471       .  S
O392        C407   1.296       .  A
O393       Zr396   2.432       .  S
O393        C406   1.291   1_556  A
O394       Zr400   2.422   1_556  S
O394        C403   1.278       .  A
O395       Zr400   2.440       .  S
O395        C404   1.293       .  A
Zr396       O402   2.333       .  S
Zr396       O414   2.340   1_556  S
Zr397       O401   2.338       .  S
Zr397       O412   2.346       .  S
Zr398       O402   2.345       .  S
Zr398       O412   2.374   1_556  S
Zr399       O401   2.349       .  S
Zr399       O414   2.344       .  S
Zr400       O401   2.342       .  S
Zr400       O402   2.375   1_554  S
Zr400       O414   2.373       .  S
Zr400       O412   2.356       .  S
C403        C605   1.507       .  S
C404        C675   1.476       .  S
C405        C785   1.535       .  S
C406        C632   1.475       .  S
C407        C612   1.482       .  S
C408        C652   1.483       .  S
C409        C662   1.478       .  S
C410        C795   1.476       .  S
H411        O412   0.965       .  S
H413        O414   0.965       .  S
C415        C602   1.482       .  S
C415        C416   1.400       .  A
C415        C420   1.421       .  A
C416        C417   1.390       .  A
C416        H421   1.071       .  S
C417        C885   1.460       .  S
C417        C418   1.384       .  A
C418        C419   1.396       .  A
C418        H422   1.085       .  S
C419        C765   1.489       .  S
C419        C420   1.422       .  A
C420        H423   1.083       .  S
C424        C615   1.486       .  S
C424        C425   1.417       .  A
C424        C429   1.404       .  A
C425        C426   1.418       .  A
C425        H430   1.082       .  S
C426        C825   1.499       .  S
C426        C427   1.400       .  A
C427        C428   1.390       .  A
C427        H431   1.084       .  S
C428        C705   1.466       .  S
C428        C429   1.398       .  A
C429        H432   1.084       .  S
C433        C635   1.483       .  S
C433        C434   1.409       .  A
C433        C438   1.414   1_554  A
C434        C435   1.402       .  A
C434        H439   1.084       .  S
C435       C1145   1.471       .  S
C435        C436   1.394       .  A
C436        C437   1.391   1_554  A
C436        H440   1.086       .  S
C437        C595   1.475       .  S
C437        C438   1.404       .  A
C438        H441   1.084       .  S
C442        C655   1.492       .  S
C442        C443   1.417       .  A
C442        C447   1.411   1_554  A
C443        C444   1.416       .  A
C443        H448   1.082       .  S
C444       C1202   1.500       .  S
C444        C445   1.399       .  A
C445        C446   1.391   1_554  A
C445        H449   1.084       .  S
C446        C585   1.473       .  S
C446        C447   1.399       .  A
C447        H450   1.083       .  S
O451       Zr487   2.414       .  S
O451        C462   1.287       .  A
O452       Zr486   2.403       .  S
O452        C463   1.285       .  A
O453       Zr459   2.472       .  S
O453        C464   1.299       .  A
O454       Zr459   2.467   1_545  S
O454        C465   1.298       .  A
O455       Zr489   2.409       .  S
O455        C465   1.286       .  A
O456       Zr488   2.409       .  S
O456        C464   1.286       .  A
O457       Zr459   2.468       .  S
O457        C463   1.299       .  A
O458       Zr459   2.445   1_545  S
O458        C462   1.295       .  A
Zr459       O460   2.351       .  S
Zr459       O461   2.359       .  S
Zr459       O469   2.334   1_565  S
Zr459       O467   2.330       .  S
O460       Zr486   2.337       .  S
O460       Zr489   2.344   1_565  S
O461       Zr487   2.344   1_565  S
O461       Zr488   2.347       .  S
C462        C915   1.463       .  S
C463        C582   1.476       .  S
C464        C905   1.468       .  S
C465        C592   1.465       .  S
H466        O467   0.965       .  S
O467       Zr486   2.331       .  S
O467       Zr488   2.337       .  S
H468        O469   0.964       .  S
O469       Zr487   2.338       .  S
O469       Zr489   2.330       .  S
O470       Zr486   2.416       .  S
O470        C493   1.287       .  A
O471       Zr487   2.418       .  S
O471        C494   1.287       .  A
O472       Zr488   2.463       .  S
O472        C495   1.296       .  A
O473       Zr489   2.458   1_565  S
O473        C496   1.295       .  A
O474       Zr489   2.465       .  S
O474        C497   1.296       .  A
O475       Zr488   2.440       .  S
O475        C498   1.291       .  A
O476       Zr490   2.458       .  S
O476        C499   1.297       .  A
O477       Zr490   2.469   1_545  S
O477        C500   1.298       .  A
O478       Zr488   2.415       .  S
O478        C499   1.287       .  A
O479       Zr489   2.406       .  S
O479        C500   1.285       .  A
O480       Zr486   2.437       .  S
O480        C495   1.292       .  A
O481       Zr487   2.450   1_565  S
O481        C498   1.293       .  A
O482       Zr487   2.441       .  S
O482        C497   1.293       .  A
O483       Zr486   2.423       .  S
O483        C496   1.290       .  A
O484       Zr490   2.456       .  S
O484        C493   1.295       .  A
O485       Zr490   2.460   1_545  S
O485        C494   1.296       .  A
Zr486       O492   2.331       .  S
Zr486       O504   2.338       .  S
Zr487       O491   2.340       .  S
Zr487       O502   2.339   1_545  S
Zr488       O492   2.337       .  S
Zr488       O502   2.347       .  S
Zr489       O491   2.342       .  S
Zr489       O504   2.339   1_545  S
Zr490       O491   2.348   1_565  S
Zr490       O492   2.353       .  S
Zr490       O504   2.329       .  S
Zr490       O502   2.337       .  S
C493        C692   1.463       .  S
C494        C805   1.467       .  S
C495        C542   1.486       .  S
C496        C572   1.485       .  S
C497        C552   1.490       .  S
C498        C562   1.470       .  S
C499        C685   1.469       .  S
C500        C815   1.466       .  S
H501        O502   0.965       .  S
H503        O504   0.965       .  S
C505        C545   1.498       .  S
C505        C506   1.413       .  A
C505        C510   1.420       .  A
C506        C507   1.401       .  A
C506        H511   1.083       .  S
C507       C1042   1.471       .  S
C507        C508   1.390       .  A
C508        C509   1.396       .  A
C508        H512   1.086       .  S
C509        C645   1.489       .  S
C509        C510   1.410       .  A
C510        H513   1.082       .  S
C514        C555   1.497       .  S
C514        C515   1.415       .  A
C514        C519   1.411       .  A
C515        C516   1.410       .  A
C515        H520   1.083       .  S
C516        C995   1.498       .  S
C516        C517   1.402       .  A
C517        C518   1.400       .  A
C517        H521   1.084       .  S
C518        C625   1.483       .  S
C518        C519   1.404       .  A
C519        H522   1.083       .  S
C523        C565   1.476       .  S
C523        C524   1.408       .  A
C523        C528   1.410       .  A
C524        C525   1.402       .  A
C524        H529   1.084   1_565  S
C525        C842   1.470   1_565  S
C525        C526   1.392       .  A
C526        C527   1.396       .  A
C526        H530   1.086       .  S
C527        C742   1.479       .  S
C527        C528   1.405       .  A
C528        H531   1.084       .  S
C532        C575   1.499       .  S
C532        C533   1.418       .  A
C532        C537   1.415       .  A
C533        C534   1.408       .  A
C533        H538   1.081   1_565  S
C534        C865   1.481   1_565  S
C534        C535   1.393       .  A
C535        C536   1.387       .  A
C535        H539   1.085       .  S
C536        C725   1.467       .  S
C536        C537   1.397       .  A
C537        H540   1.082       .  S
C541        C542   1.405       .  A
C541        C546   1.406       .  A
C541        F548   1.358       .  S
C542        C543   1.409       .  A
C543        C544   1.400       .  A
C543        F550   1.359       .  S
C544        C545   1.409       .  A
C544        F549   1.358       .  S
C545        C546   1.414       .  A
C546        F547   1.358       .  S
C551        C552   1.408       .  A
C551        C556   1.408       .  A
C551        F558   1.358       .  S
C552        C553   1.410       .  A
C553        C554   1.398       .  A
C553        F560   1.358       .  S
C554        C555   1.408       .  A
C554        F559   1.358       .  S
C555        C556   1.412       .  A
C556        F557   1.358       .  S
C561        C562   1.404       .  A
C561        C566   1.395       .  A
C561        F568   1.358       .  S
C562        C563   1.404       .  A
C563        C564   1.406       .  A
C563        F570   1.357       .  S
C564        C565   1.407       .  A
C564        F569   1.357       .  S
C565        C566   1.402       .  A
C566        F567   1.358       .  S
C571        C572   1.406       .  A
C571        C576   1.406       .  A
C571        F578   1.358   1_565  S
C572        C573   1.408       .  A
C573        C574   1.391       .  A
C573        F580   1.358       .  S
C574        C575   1.411       .  A
C574        F579   1.358       .  S
C575        C576   1.415       .  A
C576        F577   1.357   1_565  S
C581        C582   1.413       .  A
C581        C586   1.401       .  A
C581        F588   1.358       .  S
C582        C583   1.402       .  A
C583        C584   1.396       .  A
C583        F590   1.358       .  S
C584        C585   1.408       .  A
C584        F589   1.358       .  S
C585        C586   1.398       .  A
C586        F587   1.357       .  S
C591        C592   1.401       .  A
C591        C596   1.398       .  A
C591        F598   1.358   1_545  S
C592        C593   1.405       .  A
C593        C594   1.400       .  A
C593        F600   1.358       .  S
C594        C595   1.405       .  A
C594        F599   1.358       .  S
C595        C596   1.408       .  A
C596        F597   1.358       .  S
C601        C602   1.727       .  A
C601        C606   1.751       .  A
C601        F608   1.355       .  S
C602        C603   1.710       .  A
C603        C604   2.574       .  A
C603        F610   1.375       .  S
C604        C605   1.645       .  A
C604        F609   1.373       .  S
C605        C606   1.719       .  A
C606        F607   1.357       .  S
C611        C612   1.403       .  A
C611        C616   1.398       .  A
C611        F618   1.356       .  S
C612        C613   1.407       .  A
C613        C614   1.411       .  A
C613        F620   1.357       .  S
C614        C615   1.410       .  A
C614        F619   1.358       .  S
C615        C616   1.403       .  A
C616        F617   1.358       .  S
C621        C622   1.406       .  A
C621        C626   1.394       .  A
C621        F628   1.359       .  S
C622        C623   1.408       .  A
C623        C624   1.406       .  A
C623        F630   1.358       .  S
C624        C625   1.407       .  A
C624        F629   1.358       .  S
C625        C626   1.405       .  A
C626        F627   1.358       .  S
C631        C632   1.404       .  A
C631        C636   1.406       .  A
C631        F638   1.357       .  S
C632        C633   1.405   1_554  A
C633        C634   1.394       .  A
C633        F640   1.354       .  S
C634        C635   1.403   1_556  A
C634        F639   1.358       .  S
C635        C636   1.410       .  A
C636        F637   1.357       .  S
C641        C642   1.415       .  A
C641        C646   1.408       .  A
C641        F648   1.357       .  S
C642        C643   1.403       .  A
C643        C644   1.391       .  A
C643        F650   1.353       .  S
C644        C645   1.410       .  A
C644        F649   1.359       .  S
C645        C646   1.405       .  A
C646        F647   1.357       .  S
C651        C652   1.406   1_556  A
C651        C656   1.402       .  A
C651        F658   1.358       .  S
C652        C653   1.407       .  A
C653        C654   1.405       .  A
C653        F660   1.357       .  S
C654        C655   1.409       .  A
C654        F659   1.358       .  S
C655        C656   1.409   1_554  A
C656        F657   1.358       .  S
C661        C662   1.415       .  A
C661        C666   1.403       .  A
C661        F668   1.358       .  S
C662        C663   1.403       .  A
C663        C664   1.387       .  A
C663        F670   1.358       .  S
C664        C665   1.410       .  A
C664        F669   1.359       .  S
C665        C666   1.401       .  A
C666        F667   1.357       .  S
C671        C672   1.401       .  A
C671        C676   1.402       .  A
C671        F678   1.358       .  S
C672        C673   1.408       .  A
C673        C674   1.386       .  A
C673        F680   1.357       .  S
C674        C675   1.403       .  A
C674        F679   1.359       .  S
C675        C676   1.414       .  A
C676        F677   1.358       .  S
C681        C682   1.411       .  A
C681        C686   1.395       .  A
C681        F688   1.358       .  S
C682        C683   1.407       .  A
C683        C684   1.399       .  A
C683        F690   1.358       .  S
C684        C685   1.406       .  A
C684        F689   1.357       .  S
C685        C686   1.400       .  A
C686        F687   1.358       .  S
C691        C692   1.405       .  A
C691        C696   1.401       .  A
C691        F698   1.358       .  S
C692        C693   1.400       .  A
C693        C694   1.394       .  A
C693        F700   1.358       .  S
C694        C695   1.405       .  A
C694        F699   1.358       .  S
C695        C696   1.404       .  A
C696        F697   1.357       .  S
C701        C702   1.401       .  A
C701        C706   1.396       .  A
C701        F708   1.358       .  S
C702        C703   1.404       .  A
C703        C704   1.398       .  A
C703        F710   1.358       .  S
C704        C705   1.403       .  A
C704        F709   1.358       .  S
C705        C706   1.404       .  A
C706        F707   1.358       .  S
C711        C712   1.406       .  A
C711        C716   1.400       .  A
C711        F718   1.356       .  S
C712        C713   1.403   1_655  A
C713        C714   1.393       .  A
C713        F720   1.358       .  S
C714        C715   1.407   1_455  A
C714        F719   1.358       .  S
C715        C716   1.404       .  A
C716        F717   1.358       .  S
C721        C722   1.404       .  A
C721        C726   1.398       .  A
C721        F728   1.358       .  S
C722        C723   1.401       .  A
C723        C724   1.393       .  A
C723        F730   1.358       .  S
C724        C725   1.405       .  A
C724        F729   1.358       .  S
C725        C726   1.403       .  A
C726        F727   1.358       .  S
C731        C732   1.407       .  A
C731        C736   1.404       .  A
C731        F738   1.358       .  S
C732        C733   1.410       .  A
C733        C734   1.395       .  A
C733        F740   1.358       .  S
C734        C735   1.408       .  A
C734        F739   1.358       .  S
C735        C736   1.412       .  A
C736        F737   1.358       .  S
C741        C742   1.409       .  A
C741        C746   1.390       .  A
C741        F748   1.358       .  S
C742        C743   1.403       .  A
C743        C744   1.402       .  A
C743        F750   1.357       .  S
C744        C745   1.413       .  A
C744        F749   1.358       .  S
C745        C746   1.402       .  A
C746        F747   1.357       .  S
C751        C752   1.407       .  A
C751        C756   1.394       .  A
C751        F758   1.358       .  S
C752        C753   1.406       .  A
C753        C754   1.407       .  A
C753        F760   1.358       .  S
C754        C755   1.409       .  A
C754        F759   1.357       .  S
C755        C756   1.403       .  A
C756        F757   1.358       .  S
C761        C762   1.398       .  A
C761        C766   1.402       .  A
C761        F768   1.358       .  S
C762        C763   1.406       .  A
C763        C764   1.401       .  A
C763        F770   1.354       .  S
C764        C765   1.403       .  A
C764        F769   1.358       .  S
C765        C766   1.417       .  A
C766        F767   1.359       .  S
C771        C772   1.408   1_455  A
C771        C776   1.397       .  A
C771        F778   1.359       .  S
C772        C773   1.407       .  A
C773        C774   1.401       .  A
C773        F780   1.358       .  S
C774        C775   1.408       .  A
C774        F779   1.358       .  S
C775        C776   1.409   1_655  A
C776        F777   1.358       .  S
C781        C782   2.662       .  A
C781        C786   1.660       .  A
C781        F788   1.371       .  S
C782        C783   1.775       .  A
C783        C784   1.756       .  A
C783        F790   1.355       .  S
C784        C785   1.755       .  A
C784        F789   1.355       .  S
C785        C786   1.679       .  A
C786        F787   1.358       .  S
C791        C792   1.406       .  A
C791        C796   1.399       .  A
C791        F798   1.357       .  S
C792        C793   1.417       .  A
C793        C794   1.400       .  A
C793        F800   1.359       .  S
C794        C795   1.401       .  A
C794        F799   1.358       .  S
C795        C796   1.409       .  A
C796        F797   1.353       .  S
C801        C802   1.403       .  A
C801        C806   1.400       .  A
C801        F808   1.358       .  S
C802        C803   1.406       .  A
C803        C804   1.397       .  A
C803        F810   1.358       .  S
C804        C805   1.401       .  A
C804        F809   1.357       .  S
C805        C806   1.406       .  A
C806        F807   1.357       .  S
C811        C812   1.408       .  A
C811        C816   1.403       .  A
C811        F818   1.358       .  S
C812        C813   1.410       .  A
C813        C814   1.395       .  A
C813        F820   1.358       .  S
C814        C815   1.399       .  A
C814        F819   1.357       .  S
C815        C816   1.406       .  A
C816        F817   1.358       .  S
C821        C822   1.408       .  A
C821        C826   1.402       .  A
C821        F828   1.354       .  S
C822        C823   1.401       .  A
C823        C824   1.399       .  A
C823        F830   1.358       .  S
C824        C825   1.416       .  A
C824        F829   1.358       .  S
C825        C826   1.409       .  A
C826        F827   1.357       .  S
C831        C832   1.407   1_455  A
C831        C836   1.411       .  A
C831        F838   1.357       .  S
C832        C833   1.404       .  A
C833        C834   1.399       .  A
C833        F840   1.355       .  S
C834        C835   1.404       .  A
C834        F839   1.358       .  S
C835        C836   1.411   1_655  A
C836        F837   1.358       .  S
C841        C842   1.402       .  A
C841        C846   1.402       .  A
C841        F848   1.357       .  S
C842        C843   1.406       .  A
C843        C844   1.393       .  A
C843        F850   1.359       .  S
C844        C845   1.400       .  A
C844        F849   1.356       .  S
C845        C846   1.408       .  A
C846        F847   1.358       .  S
C851        C852   1.404       .  A
C851        C856   1.397       .  A
C851        F858   1.358       .  S
C852        C853   1.406       .  A
C853        C854   1.405       .  A
C853        F860   1.358       .  S
C854        C855   1.409       .  A
C854        F859   1.358       .  S
C855        C856   1.408       .  A
C856        F857   1.358       .  S
C861        C862   1.408       .  A
C861        C866   1.402       .  A
C861        F868   1.358       .  S
C862        C863   1.399       .  A
C863        C864   1.391       .  A
C863        F870   1.359       .  S
C864        C865   1.411       .  A
C864        F869   1.359   1_545  S
C865        C866   1.406       .  A
C866        F867   1.358       .  S
C871        C872   1.400       .  A
C871        C876   1.391       .  A
C871        F878   1.353       .  S
C872        C873   1.414       .  A
C873        C874   1.403       .  A
C873        F880   1.358       .  S
C874        C875   1.404       .  A
C874        F879   1.357       .  S
C875        C876   1.411       .  A
C876        F877   1.357       .  S
C881        C882   1.403       .  A
C881        C886   1.388       .  A
C881        F888   1.357       .  S
C882        C883   1.398       .  A
C883        C884   1.398       .  A
C883        F890   1.358       .  S
C884        C885   1.408       .  A
C884        F889   1.358       .  S
C885        C886   1.397       .  A
C886        F887   1.358       .  S
C891        C892   1.414       .  A
C891        C896   1.410       .  A
C891        F898   1.358       .  S
C892        C893   1.405       .  A
C893        C894   1.421       .  A
C893        F900   1.357   1_655  S
C894        C895   1.438       .  A
C894        F899   1.353   1_655  S
C895        C896   1.427       .  A
C896        F897   1.351       .  S
C901        C902   1.406       .  A
C901        C906   1.398       .  A
C901        F908   1.358       .  S
C902        C903   1.411       .  A
C903        C904   1.401       .  A
C903        F910   1.358       .  S
C904        C905   1.402       .  A
C904        F909   1.358       .  S
C905        C906   1.404       .  A
C906        F907   1.358       .  S
C911        C912   1.404       .  A
C911        C916   1.390       .  A
C911        F918   1.359       .  S
C912        C913   1.404       .  A
C913        C914   1.398       .  A
C913        F920   1.358       .  S
C914        C915   1.405       .  A
C914        F919   1.358       .  S
C915        C916   1.404       .  A
C916        F917   1.358       .  S
C921        C922   1.398       .  A
C921        C926   1.393       .  A
C921        F928   1.358       .  S
C922        C923   1.408       .  A
C923        C924   1.401       .  A
C923        F930   1.358       .  S
C924        C925   1.401       .  A
C924        F929   1.358       .  S
C925        C926   1.407       .  A
C926        F927   1.359       .  S
C931        C932   1.418       .  A
C931        C936   1.406       .  A
C931        F938   1.358       .  S
C932        C933   1.406       .  A
C933        C934   1.391       .  A
C933        F940   1.358       .  S
C934        C935   1.410       .  A
C934        F939   1.358       .  S
C935        C936   1.403       .  A
C936        F937   1.358       .  S
C941        C942   1.403       .  A
C941        C946   1.386       .  A
C941        F948   1.358       .  S
C942        C943   1.398       .  A
C943        C944   1.394       .  A
C943        F950   1.358       .  S
C944        C945   1.407       .  A
C944        F949   1.358       .  S
C945        C946   1.402       .  A
C946        F947   1.358       .  S
C951        C952   1.403       .  A
C951        C956   1.403       .  A
C951        F958   1.357       .  S
C952        C953   1.412       .  A
C953        C954   1.385       .  A
C953        F960   1.357       .  S
C954        C955   1.399       .  A
C954        F959   1.358       .  S
C955        C956   1.413       .  A
C956        F957   1.358       .  S
C961        C962   1.408       .  A
C961        C966   1.392       .  A
C961        F968   1.358       .  S
C962        C963   1.399       .  A
C963        C964   1.398       .  A
C963        F970   1.357       .  S
C964        C965   1.408       .  A
C964        F969   1.358       .  S
C965        C966   1.397       .  A
C966        F967   1.358       .  S
C971        C972   1.402       .  A
C971        C976   1.398       .  A
C971        F978   1.358       .  S
C972        C973   1.402       .  A
C973        C974   1.395       .  A
C973        F980   1.359       .  S
C974        C975   1.407       .  A
C974        F979   1.358       .  S
C975        C976   1.406       .  A
C976        F977   1.358       .  S
C981        C982   1.412       .  A
C981        C986   1.405       .  A
C981        F988   1.358       .  S
C982        C983   1.405       .  A
C983        C984   1.399       .  A
C983        F990   1.358       .  S
C984        C985   1.411       .  A
C984        F989   1.358       .  S
C985        C986   1.407       .  A
C986        F987   1.358       .  S
C991        C992   1.407       .  A
C991        C996   1.403       .  A
C991        F998   1.356       .  S
C992        C993   1.405       .  A
C993        C994   1.400       .  A
C993       F1000   1.359       .  S
C994        C995   1.412       .  A
C994        F999   1.358       .  S
C995        C996   1.411       .  A
C996        F997   1.357       .  S
C1001      C1002   1.402       .  A
C1001      C1006   1.390       .  A
C1001      F1008   1.357   1_554  S
C1002      C1003   1.403       .  A
C1003      C1004   1.405       .  A
C1003      F1010   1.357       .  S
C1004      C1005   1.408       .  A
C1004      F1009   1.357       .  S
C1005      C1006   1.403       .  A
C1006      F1007   1.359   1_554  S
C1011      C1012   1.408       .  A
C1011      C1016   1.394       .  A
C1011      F1018   1.359       .  S
C1012      C1013   1.404       .  A
C1013      C1014   1.396       .  A
C1013      F1020   1.358       .  S
C1014      C1015   1.402       .  A
C1014      F1019   1.358       .  S
C1015      C1016   1.400       .  A
C1016      F1017   1.359       .  S
C1021      C1022   1.419       .  A
C1021      C1026   1.419       .  A
C1021      F1028   1.357   1_455  S
C1022      C1023   1.417       .  A
C1023      C1024   1.414       .  A
C1023      F1030   1.357       .  S
C1024      C1025   1.408       .  A
C1024      F1029   1.353       .  S
C1025      C1026   1.412       .  A
C1026      F1027   1.358       .  S
C1031      C1032   1.418       .  A
C1031      C1036   1.400       .  A
C1031      F1038   1.358       .  S
C1032      C1033   1.407       .  A
C1033      C1034   1.390       .  A
C1033      F1040   1.357       .  S
C1034      C1035   1.412       .  A
C1034      F1039   1.358       .  S
C1035      C1036   1.402       .  A
C1036      F1037   1.358       .  S
C1041      C1042   1.403       .  A
C1041      C1046   1.402       .  A
C1041      F1048   1.357       .  S
C1042      C1043   1.405       .  A
C1043      C1044   1.394       .  A
C1043      F1050   1.358       .  S
C1044      C1045   1.401       .  A
C1044      F1049   1.356       .  S
C1045      C1046   1.408       .  A
C1046      F1047   1.358       .  S
C1051      C1052   1.408   1_556  A
C1051      C1056   1.402       .  A
C1051      F1058   1.358       .  S
C1052      C1053   1.410       .  A
C1053      C1054   1.409       .  A
C1053      F1060   1.358       .  S
C1054      C1055   1.410       .  A
C1054      F1059   1.358       .  S
C1055      C1056   1.408   1_554  A
C1056      F1057   1.357       .  S
C1061      C1062   1.413       .  A
C1061      C1066   1.401       .  A
C1061      F1068   1.356       .  S
C1062      C1063   1.405       .  A
C1063      C1064   1.391       .  A
C1063      F1070   1.358       .  S
C1064      C1065   1.408       .  A
C1064      F1069   1.359       .  S
C1065      C1066   1.402       .  A
C1066      F1067   1.358       .  S
C1071      C1072   1.403       .  A
C1071      C1076   1.401       .  A
C1071      F1078   1.358       .  S
C1072      C1073   1.401       .  A
C1073      C1074   1.392       .  A
C1073      F1080   1.352       .  S
C1074      C1075   1.409       .  A
C1074      F1079   1.358       .  S
C1075      C1076   1.413       .  A
C1076      F1077   1.358   1_545  S
C1081      C1082   1.401       .  A
C1081      C1086   1.395       .  A
C1081      F1088   1.356       .  S
C1082      C1083   1.409       .  A
C1083      C1084   1.403       .  A
C1083      F1090   1.358       .  S
C1084      C1085   1.403       .  A
C1084      F1089   1.358       .  S
C1085      C1086   1.406       .  A
C1086      F1087   1.358       .  S
C1091      C1092   1.406       .  A
C1091      C1096   1.399       .  A
C1091      F1098   1.358       .  S
C1092      C1093   1.400       .  A
C1093      C1094   1.392       .  A
C1093      F1100   1.356       .  S
C1094      C1095   1.403       .  A
C1094      F1099   1.359       .  S
C1095      C1096   1.401       .  A
C1096      F1097   1.358       .  S
C1101      C1102   1.400       .  A
C1101      C1106   1.392       .  A
C1101      F1108   1.358       .  S
C1102      C1103   1.405       .  A
C1103      C1104   1.398       .  A
C1103      F1110   1.358       .  S
C1104      C1105   1.406       .  A
C1104      F1109   1.358       .  S
C1105      C1106   1.408       .  A
C1106      F1107   1.358       .  S
C1111      C1112   1.408       .  A
C1111      C1116   1.394       .  A
C1111      F1118   1.359       .  S
C1112      C1113   1.404       .  A
C1113      C1114   1.400       .  A
C1113      F1120   1.358       .  S
C1114      C1115   1.409       .  A
C1114      F1119   1.358       .  S
C1115      C1116   1.405       .  A
C1116      F1117   1.358       .  S
C1121      C1122   1.415       .  A
C1121      C1126   1.403       .  A
C1121      F1128   1.358       .  S
C1122      C1123   1.402       .  A
C1123      C1124   1.391       .  A
C1123      F1130   1.353       .  S
C1124      C1125   1.410       .  A
C1124      F1129   1.359       .  S
C1125      C1126   1.403       .  A
C1126      F1127   1.358       .  S
C1131      C1132   1.403       .  A
C1131      C1136   1.399       .  A
C1131      F1138   1.357       .  S
C1132      C1133   1.404       .  A
C1133      C1134   1.400       .  A
C1133      F1140   1.358       .  S
C1134      C1135   1.405       .  A
C1134      F1139   1.358       .  S
C1135      C1136   1.405       .  A
C1136      F1137   1.358       .  S
C1141      C1142   1.403       .  A
C1141      C1146   1.390       .  A
C1141      F1148   1.359       .  S
C1142      C1143   1.410       .  A
C1143      C1144   1.401       .  A
C1143      F1150   1.358       .  S
C1144      C1145   1.402       .  A
C1144      F1149   1.358       .  S
C1145      C1146   1.406       .  A
C1146      F1147   1.359       .  S
C1151      C1152   1.398       .  A
C1151      C1156   1.393       .  A
C1151      F1158   1.358       .  S
C1152      C1153   1.409       .  A
C1153      C1154   1.400       .  A
C1153      F1160   1.358       .  S
C1154      C1155   1.404       .  A
C1154      F1159   1.358       .  S
C1155      C1156   1.411       .  A
C1156      F1157   1.358       .  S
C1161      C1162   1.408       .  A
C1161      C1166   1.405       .  A
C1161      F1168   1.357       .  S
C1162      C1163   1.405       .  A
C1163      C1164   1.392       .  A
C1163      F1170   1.359       .  S
C1164      C1165   1.408       .  A
C1164      F1169   1.357       .  S
C1165      C1166   1.407       .  A
C1166      F1167   1.357       .  S
C1171      C1172   1.408       .  A
C1171      C1176   1.392       .  A
C1171      F1178   1.359       .  S
C1172      C1173   1.402       .  A
C1173      C1174   1.400       .  A
C1173      F1180   1.357       .  S
C1174      C1175   1.411       .  A
C1174      F1179   1.358       .  S
C1175      C1176   1.403       .  A
C1176      F1177   1.356       .  S
C1181      C1182   1.404       .  A
C1181      C1186   1.392       .  A
C1181      F1188   1.359       .  S
C1182      C1183   1.403       .  A
C1183      C1184   1.404       .  A
C1183      F1190   1.358       .  S
C1184      C1185   1.409       .  A
C1184      F1189   1.358       .  S
C1185      C1186   1.400       .  A
C1186      F1187   1.355       .  S
C1191      C1192   1.406       .  A
C1191      C1196   1.403       .  A
C1191      F1198   1.357       .  S
C1192      C1193   1.408       .  A
C1193      C1194   1.394       .  A
C1193      F1200   1.358       .  S
C1194      C1195   1.404       .  A
C1194      F1199   1.359   1_565  S
C1195      C1196   1.408       .  A
C1196      F1197   1.358       .  S
C1201      C1202   1.416       .  A
C1201      C1206   1.385       .  A
C1201      F1208   1.355       .  S
C1202      C1203   1.408       .  A
C1203      C1204   1.409       .  A
C1203      F1210   1.357       .  S
C1204      C1205   1.417       .  A
C1204      F1209   1.358       .  S
C1205      C1206   1.404       .  A
C1206      F1207   1.359       .  S
C1211      C1212   1.405       .  A
C1211      C1216   1.394       .  A
C1211      F1218   1.358       .  S
C1212      C1213   1.418       .  A
C1213      C1214   1.403       .  A
C1213      F1220   1.358       .  S
C1214      C1215   1.402       .  A
C1214      F1219   1.357       .  S
C1215      C1216   1.414       .  A
C1216      F1217   1.359       .  S
C1221      C1222   1.407       .  A
C1221      C1226   1.399       .  A
C1221      F1228   1.359       .  S
C1222      C1223   1.405       .  A
C1223      C1224   1.404       .  A
C1223      F1230   1.358       .  S
C1224      C1225   1.412       .  A
C1224      F1229   1.357       .  S
C1225      C1226   1.410       .  A
C1226      F1227   1.358       .  S
C1231      C1232   1.413       .  A
C1231      C1236   1.400       .  A
C1231      F1238   1.358       .  S
C1232      C1233   1.407       .  A
C1233      C1234   1.392       .  A
C1233      F1240   1.359       .  S
C1234      C1235   1.409       .  A
C1234      F1239   1.359       .  S
C1235      C1236   1.403       .  A
C1236      F1237   1.357       .  S
C1241      C1242   1.398       .  A
C1241      C1246   1.389       .  A
C1241      F1248   1.359       .  S
C1242      C1243   1.402       .  A
C1243      C1244   1.395       .  A
C1243      F1250   1.358       .  S
C1244      C1245   1.405       .  A
C1244      F1249   1.358       .  S
C1245      C1246   1.407       .  A
C1246      F1247   1.357       .  S
C1251      C1252   1.409       .  A
C1251      C1256   1.406       .  A
C1251      F1258   1.358       .  S
C1252      C1253   1.406       .  A
C1253      C1254   1.394       .  A
C1253      F1260   1.358       .  S
C1254      C1255   1.403       .  A
C1254      F1259   1.359       .  S
C1255      C1256   1.404       .  A
C1256      F1257   1.357       .  S
