geometry optimzed in LAMMPS
_audit_creation_date              2020-11-30 
_audit_creation_method            'lammps2cif' 
_symmetry_space_group_name_H-M    'P1' 
_symmetry_Int_Tables_number       1 
_symmetry_cell_setting            triclinic 
loop_ 
_symmetry_equiv_pos_as_xyz 
  x,y,z 
_cell_length_a                    56.42214507 
_cell_length_b                    56.328860841234395 
_cell_length_c                    33.35646668871144 
_cell_angle_alpha                 89.8743307477039 
_cell_angle_beta                  90.18296999183282 
_cell_angle_gamma                 119.70978273833349 
loop_ 
_atom_site_label 
_atom_site_type_symbol 
_atom_site_fract_x 
_atom_site_fract_y 
_atom_site_fract_z 
_atom_site_charge 
Fe1        Fe  0.34997742  0.42490817  0.12631003     1.65800
Fe2        Fe  0.28991470  0.39699134  0.17647877     1.73200
Fe3        Fe  0.29000365  0.39560896  0.07426649     1.54400
O4          O  0.31695560  0.43285552  0.04762368    -0.81600
O5          O  0.26578591  0.35652360  0.16119576    -0.79900
O6          O  0.35273269  0.45521219  0.08861251    -0.84100
O7          O  0.35341270  0.40430928  0.07802436    -0.79000
O8          O  0.26544392  0.41187043  0.08966006    -0.80800
O9          O  0.31651984  0.38690696  0.20532182    -0.83500
C10         C  0.33754378  0.38621065  0.05361747     0.97300
C11         C  0.33938648  0.45396968  0.05712263     1.04700
O12         O  0.30986458  0.40580087  0.12552311    -1.12500
O13         O  0.31159513  0.43676875  0.19646640    -0.74900
O14         O  0.35339795  0.44896410  0.17514346    -0.78400
O15         O  0.31212461  0.37803918  0.05239410    -0.79100
C16         C  0.33717465  0.45268531  0.19701155     0.96200
O17         O  0.35048634  0.39575839  0.16320783    -0.77100
O18         O  0.26029821  0.40529130  0.15541129    -0.82300
C19         C  0.25361158  0.34512486  0.12879174     0.98800
C20         C  0.25349037  0.41122178  0.12216244     1.04700
O21         O  0.26030706  0.35729617  0.09500162    -0.77900
C22         C  0.33745822  0.38535213  0.19537137     1.03000
Fe23       Fe  0.06850978  0.42516836  0.12426661     1.65800
Fe24       Fe  0.09778456  0.39318310  0.17445907     1.73200
Fe25       Fe  0.09937792  0.39560582  0.07178912     1.54400
O26         O  0.06127756  0.38085809  0.04659170    -0.81600
O27         O  0.13710317  0.40446415  0.15674857    -0.79900
O28         O  0.04275817  0.40262663  0.07781189    -0.84100
O29         O  0.09535053  0.45472257  0.08483129    -0.79000
O30         O  0.08805569  0.35610366  0.08851791    -0.80800
O31         O  0.11305184  0.43113613  0.20070826    -0.83500
C32         C  0.10917481  0.45405882  0.05530995     0.97300
C33         C  0.04216720  0.38628055  0.05115445     1.04700
O34         O  0.08861936  0.40473316  0.12349566    -1.12500
O35         O  0.05964945  0.37988500  0.19924759    -0.74900
O36         O  0.03937435  0.39821074  0.16354919    -0.78400
O37         O  0.11189223  0.43355996  0.04724748    -0.79100
C38         C  0.03928759  0.38299003  0.19174126     0.96200
O39         O  0.09095616  0.45015816  0.17146540    -0.77100
O40         O  0.08373113  0.35389761  0.15474807    -0.82300
C41         C  0.15017329  0.40993452  0.12398836     0.98800
C42         C  0.08251256  0.34285706  0.12113337     1.04700
O43         O  0.13902134  0.40917513  0.09049224    -0.77900
C44         C  0.10718420  0.45008547  0.19787690     1.03000
Fe45       Fe  0.07209301  0.14629996  0.12459104     1.65800
Fe46       Fe  0.10206548  0.20716798  0.07450872     1.73200
Fe47       Fe  0.10029033  0.20600605  0.17712489     1.54400
O48         O  0.06075346  0.18379896  0.19768870    -0.81600
O49         O  0.13998085  0.23619266  0.09608968    -0.79900
O50         O  0.04586107  0.14279450  0.17051082    -0.84100
O51         O  0.09888766  0.14419800  0.16462724    -0.79000
O52         O  0.09099533  0.23502168  0.15694275    -0.80800
O53         O  0.11970266  0.18559467  0.05160106    -0.83500
C54         C  0.11038698  0.15759040  0.19616181     0.97300
C55         C  0.04306310  0.15870902  0.19456770     1.04700
O56         O  0.09156636  0.18649652  0.12535543    -1.12500
O57         O  0.06573493  0.18106533  0.04589848    -0.74900
O58         O  0.04309110  0.14418794  0.08452105    -0.78400
O59         O  0.11088134  0.17971721  0.20514589    -0.79100
C60         C  0.04471055  0.15838293  0.05397036     0.96200
O61         O  0.09570507  0.14405592  0.07858305    -0.77100
O62         O  0.08543070  0.23113244  0.09095522    -0.82300
C63         C  0.15236357  0.24244318  0.12962498     0.98800
C64         C  0.08489414  0.24195308  0.12404399     1.04700
O65         O  0.14079182  0.23079347  0.16219713    -0.77900
C66         C  0.11342116  0.16068122  0.05412781     1.03000
Fe67       Fe  0.42215554  0.35000044  0.37407999     1.65800
Fe68       Fe  0.39330186  0.29014406  0.32375935     1.73200
Fe69       Fe  0.39163525  0.29043141  0.42556513     1.54400
O70         O  0.42811750  0.31803613  0.45352398    -0.81600
O71         O  0.35266775  0.26701251  0.33858395    -0.79900
O72         O  0.45257569  0.35106972  0.40949365    -0.84100
O73         O  0.40250004  0.35368544  0.42411554    -0.79000
O74         O  0.40899909  0.26677971  0.41125127    -0.80800
O75         O  0.38426140  0.31774535  0.29523149    -0.83500
C76         C  0.38235415  0.33744295  0.44555494     0.97300
C77         C  0.45035944  0.33878035  0.44241837     1.04700
O78         O  0.40230867  0.31005477  0.37447873    -1.12500
O79         O  0.43315379  0.31109625  0.30407147    -0.74900
O80         O  0.44508784  0.35318892  0.32382404    -0.78400
O81         O  0.37286007  0.31180991  0.44474162    -0.79100
C82         C  0.44872126  0.33674948  0.30224242     0.96200
O83         O  0.39286275  0.35115863  0.33859773    -0.77100
O84         O  0.40094311  0.26003497  0.34576410    -0.82300
C85         C  0.34134409  0.25468356  0.37088424     0.98800
C86         C  0.40792118  0.25424581  0.37910867     1.04700
O87         O  0.35403441  0.26038888  0.40413638    -0.77900
C88         C  0.38274747  0.33868553  0.30587154     1.03000
Fe89       Fe  0.42705868  0.07273631  0.37522190     1.65800
Fe90       Fe  0.39638426  0.10194567  0.42709163     1.73200
Fe91       Fe  0.39497256  0.10159701  0.32510553     1.54400
O92         O  0.43395798  0.11974551  0.30186963    -0.81600
O93         O  0.35811673  0.09388007  0.40776997    -0.79900
O94         O  0.45050644  0.09416070  0.32660408    -0.84100
O95         O  0.39945675  0.04268124  0.33808278    -0.79000
O96         O  0.40321460  0.13969258  0.34544641    -0.80800
O97         O  0.37887183  0.06231311  0.44804561    -0.83500
C98         C  0.38679263  0.04363392  0.30725040     0.97300
C99         C  0.45176019  0.11223359  0.30259725     1.04700
O100        O  0.40615537  0.09212825  0.37574152    -1.12500
O101        O  0.43316674  0.11147909  0.45445314    -0.74900
O102        O  0.45687724  0.10087788  0.41231405    -0.78400
O103        O  0.38499956  0.06462111  0.29810869    -0.79100
C104        C  0.45493649  0.11147223  0.44473121     0.96200
O105        O  0.40652722  0.04827638  0.42370935    -0.77100
O106        O  0.41281944  0.14251924  0.41064125    -0.82300
C107        C  0.34437427  0.08645228  0.37542589     0.98800
C108        C  0.41089872  0.15316372  0.37798375     1.04700
O109        O  0.35477680  0.08468266  0.34269462    -0.77900
C110        C  0.38757264  0.04539930  0.44708987     1.03000
Fe111      Fe  0.14497229  0.07287025  0.37587625     1.65800
Fe112      Fe  0.20593838  0.10381144  0.42547727     1.73200
Fe113      Fe  0.20423047  0.09915908  0.32297172     1.54400
O114        O  0.18208477  0.05892141  0.30537345    -0.81600
O115        O  0.23399180  0.14127123  0.40174161    -0.79900
O116        O  0.14102515  0.04558466  0.33106096    -0.84100
O117        O  0.14307088  0.09907850  0.33471536    -0.79000
O118        O  0.23411580  0.09130672  0.34432272    -0.80800
O119        O  0.18400685  0.12146371  0.44748901    -0.83500
C120        C  0.15598599  0.10917781  0.30243334     0.97300
C121        C  0.15681503  0.04186198  0.30802881     1.04700
O122        O  0.18508898  0.09197945  0.37488504    -1.12500
O123        O  0.18048112  0.06767598  0.45526178    -0.74900
O124        O  0.14305760  0.04501931  0.41772350    -0.78400
O125        O  0.17747603  0.10851734  0.29323472    -0.79100
C126        C  0.15748107  0.04673676  0.44810320     0.96200
O127        O  0.14273516  0.09731169  0.42029846    -0.77100
O128        O  0.23079822  0.08781465  0.41058072    -0.82300
C129        C  0.24028556  0.15259102  0.36739702     0.98800
C130        C  0.24181890  0.08689451  0.37794946     1.04700
O131        O  0.22866850  0.14008752  0.33534106    -0.77900
C132        C  0.15918210  0.11534659  0.44447705     1.03000
C133        C  0.27623023  0.07906603  0.34204952    -0.12200
C134        C  0.26554254  0.08196277  0.37863802     0.04800
C135        C  0.27946390  0.08274799  0.41443645    -0.07500
C136        C  0.30406997  0.08229122  0.41274624    -0.08300
C137        C  0.31570678  0.08131654  0.37595448    -0.02800
C138        C  0.30087426  0.07869770  0.34035914     0.04000
N139        N  0.31117162  0.07719098  0.30191278     0.66500
H140        H  0.26590990  0.07802533  0.31410641     0.15400
H141        H  0.31475927  0.08404969  0.44059576     0.15100
N142        N  0.27001208  0.08584179  0.45271353     0.74200
O143        O  0.30761944  0.05459117  0.28909737    -0.39200
O144        O  0.32201093  0.09798962  0.27953507    -0.39200
O145        O  0.25761115  0.06534145  0.47535138    -0.39900
O146        O  0.27808225  0.10948344  0.46650891    -0.39900
C147        C  0.30431706  0.21634145  0.33282994    -0.12200
C148        C  0.31302128  0.23128079  0.36878984     0.04800
C149        C  0.29531935  0.22184741  0.40224531    -0.07500
C150        C  0.27068885  0.19715085  0.39986472    -0.08300
C151        C  0.26322011  0.18108283  0.36512002    -0.02800
C152        C  0.27985416  0.19142058  0.33075271     0.04000
N153        N  0.27356601  0.17587538  0.29457802     0.66500
H154        H  0.31739525  0.22309239  0.30668031     0.15400
H155        H  0.25785086  0.18991315  0.42624439     0.15100
N156        N  0.30152747  0.23688559  0.43888542     0.74200
O157        O  0.26289633  0.18159499  0.26553373    -0.39200
O158        O  0.28264372  0.15965134  0.28938964    -0.39200
O159        O  0.28450653  0.24328607  0.45207754    -0.39900
O160        O  0.31820765  0.23581760  0.46309967    -0.39900
C161        C  0.41736534  0.22072059  0.34394708    -0.12200
C162        C  0.41373816  0.23113419  0.38026574     0.04800
C163        C  0.41324011  0.21756281  0.41630470    -0.07500
C164        C  0.41429959  0.19322314  0.41502620    -0.08300
C165        C  0.41578480  0.18171726  0.37841012    -0.02800
C166        C  0.41849407  0.19644419  0.34269548     0.04000
N167        N  0.42185430  0.18682940  0.30468267     0.66500
H168        H  0.41855395  0.23104249  0.31595016     0.15400
H169        H  0.41233918  0.18249878  0.44290500     0.15100
N170        N  0.40968903  0.22700199  0.45432968     0.74200
O171        O  0.40192695  0.17572066  0.28073966    -0.39200
O172        O  0.44553580  0.19376309  0.29236875    -0.39200
O173        O  0.38609421  0.21704024  0.46910321    -0.39900
O174        O  0.43026510  0.24165900  0.47585221    -0.39900
C175        C  0.47429338  0.12546387  0.01315721    -0.12200
C176        C  0.47851575  0.12373985  0.47297789     0.04800
C177        C  0.00490776  0.13510018  0.45961116    -0.07500
C178        C  0.02648489  0.14691922  0.48711998    -0.08300
C179        C  0.02165088  0.14759139  0.02552744    -0.02800
C180        C  0.49593731  0.13687615  0.04050122     0.04000
N181        N  0.49013246  0.13629517  0.08228940     0.66500
H182        H  0.45361687  0.11604953  0.02451311     0.15400
H183        H  0.04715613  0.15448253  0.47656312     0.15100
N184        N  0.01099055  0.13365697  0.41842880     0.74200
O185        O  0.49078033  0.15683999  0.09845838    -0.39200
O186        O  0.48048767  0.11409331  0.10143638    -0.39200
O187        O  0.01978261  0.15465633  0.39661344    -0.39900
O188        O  0.01241362  0.11323540  0.40609312    -0.39900
C189        C  0.98666222  0.15091710  0.26577782    -0.12200
C190        C  0.47474998  0.12464815  0.27404871     0.04800
C191        C  0.48484783  0.10889534  0.25580379    -0.07500
C192        C  0.50650605  0.12103155  0.22882231    -0.08300
C193        C  0.01870883  0.14697325  0.22105066    -0.02800
C194        C  0.00881181  0.16302504  0.23928650     0.04000
N195        N  0.02085037  0.19159071  0.23130882     0.66500
H196        H  0.97929301  0.16347357  0.27943170     0.15400
H197        H  0.51399352  0.10842435  0.21571545     0.15100
N198        N  0.47268997  0.08022856  0.26313430     0.74200
O199        O  0.01538697  0.19950304  0.19892175    -0.39200
O200        O  0.03216594  0.20841428  0.25952515    -0.39200
O201        O  0.45738494  0.06365228  0.23675456    -0.39900
O202        O  0.48192767  0.07184461  0.29091963    -0.39900
C203        C  0.13404644  0.13078805  0.20777918    -0.12200
C204        C  0.12342897  0.14667971  0.22361443     0.04800
C205        C  0.12441872  0.15074707  0.26552625    -0.07500
C206        C  0.13517195  0.13840586  0.29054621    -0.08300
C207        C  0.14551229  0.12233959  0.27468401    -0.02800
C208        C  0.14513173  0.11875968  0.23282271     0.04000
N209        N  0.15443967  0.10168219  0.21543336     0.66500
H210        H  0.13342917  0.12738162  0.17588796     0.15400
H211        H  0.13540843  0.14135769  0.32251144     0.15100
N212        N  0.11355448  0.16634740  0.28342356     0.74200
O213        O  0.13865320  0.07616518  0.21401184    -0.39200
O214        O  0.17642432  0.11230813  0.19583332    -0.39200
O215        O  0.08932994  0.15436518  0.29615897    -0.39900
O216        O  0.12942279  0.19093726  0.29296168    -0.39900
C217        C  0.12026651  0.14925290  0.48560618    -0.12200
C218        C  0.12633762  0.15029031  0.02602408     0.04800
C219        C  0.14203430  0.13873357  0.03960658    -0.07500
C220        C  0.15308366  0.12819358  0.01190959    -0.08300
C221        C  0.14863423  0.12877287  0.47165857    -0.02800
C222        C  0.13049946  0.13765133  0.45832122     0.04000
N223        N  0.12251370  0.13536678  0.41717941     0.66500
H224        H  0.10637152  0.15599118  0.47504658     0.15400
H225        H  0.16513762  0.11938547  0.02287405     0.15100
N226        N  0.14691953  0.13755711  0.08141397     0.74200
O227        O  0.10217571  0.11356955  0.40497217    -0.39200
O228        O  0.13142394  0.15671556  0.39612020    -0.39200
O229        O  0.13580989  0.11477173  0.09915368    -0.39900
O230        O  0.16564912  0.15831201  0.09874152    -0.39900
C231        C  0.14345307  0.00359659  0.04112250    -0.12200
C232        C  0.12187447  0.47765688  0.02791786     0.04800
C233        C  0.11875403  0.47414458  0.48645095    -0.07500
C234        C  0.13056247  0.49693812  0.46125108    -0.08300
C235        C  0.14667776  0.02324413  0.47617821    -0.02800
C236        C  0.15580872  0.02619572  0.01530907     0.04000
N237        N  0.17613841  0.05187552  0.03115229     0.66500
H238        H  0.14982884  0.00587483  0.07222372     0.15400
H239        H  0.12666281  0.49398107  0.42930387     0.15100
N240        N  0.10151977  0.44778853  0.46938052     0.74200
O241        O  0.16919687  0.06823593  0.04548801    -0.39200
O242        O  0.20016192  0.05633448  0.03641070    -0.39200
O243        O  0.07670844  0.44003107  0.46272574    -0.39900
O244        O  0.11193683  0.43430122  0.45521254    -0.39900
C245        C  0.14721822  0.48464331  0.23687207    -0.12200
C246        C  0.11945189  0.47280916  0.22704941     0.04800
C247        C  0.10358039  0.48250402  0.24593603    -0.07500
C248        C  0.11752194  0.00634512  0.26944492    -0.08300
C249        C  0.14482984  0.01742540  0.28164542    -0.02800
C250        C  0.16037570  0.00614705  0.26601933     0.04000
N251        N  0.18794120  0.01592783  0.27852134     0.66500
H252        H  0.15956176  0.47711866  0.22298724     0.15400
H253        H  0.10520141  0.01466878  0.28089014     0.15100
N254        N  0.07488151  0.46996983  0.23866642     0.74200
O255        O  0.19269574  0.00816351  0.31159138    -0.39200
O256        O  0.20724101  0.02906091  0.25426287    -0.39200
O257        O  0.05855370  0.44961439  0.25934288    -0.39900
O258        O  0.06573621  0.48166059  0.21623591    -0.39900
C259        C  0.99855280  0.38168724  0.22240401    -0.12200
C260        C  0.01488303  0.36946833  0.21800585     0.04800
C261        C  0.00834823  0.34567259  0.24051578    -0.07500
C262        C  0.48748949  0.33553640  0.26831762    -0.08300
C263        C  0.47161401  0.34815489  0.27347051    -0.02800
C264        C  0.47780420  0.37171060  0.25085299     0.04000
N265        N  0.46158177  0.38466177  0.25394712     0.66500
H266        H  0.00303926  0.39986338  0.20543063     0.15400
H267        H  0.48282264  0.31730502  0.28528172     0.15100
N268        N  0.02350288  0.33168737  0.23602109     0.74200
O269        O  0.46987203  0.40589259  0.27506098    -0.39200
O270        O  0.44155479  0.37766227  0.23061483    -0.39200
O271        O  0.03886320  0.33226382  0.26403254    -0.39900
O272        O  0.01829285  0.31541699  0.20709440    -0.39900
C273        C  0.02297481  0.36983204  0.48298275    -0.12200
C274        C  0.01853912  0.37349169  0.02353726     0.04800
C275        C  0.49218176  0.36646804  0.03847376    -0.07500
C276        C  0.47033272  0.35507424  0.01138758    -0.08300
C277        C  0.47415712  0.34961459  0.46981707    -0.02800
C278        C  0.00120058  0.35935782  0.45563872     0.04000
N279        N  0.00644222  0.35732007  0.41425797     0.66500
H280        H  0.04344762  0.37680823  0.47201070     0.15400
H281        H  0.45036432  0.35098940  0.02123523     0.15100
N282        N  0.48726749  0.37159699  0.07869236     0.74200
O283        O  0.01324831  0.37751291  0.39131153    -0.39200
O284        O  0.51164403  0.34708456  0.39734204    -0.39200
O285        O  0.48229625  0.39069522  0.08576281    -0.39900
O286        O  0.48411826  0.35479038  0.10607129    -0.39900
C287        C  0.07630719  0.27557363  0.08700402    -0.12200
C288        C  0.07857664  0.26469587  0.12391954     0.04800
C289        C  0.07706078  0.27745396  0.15965383    -0.07500
C290        C  0.07578690  0.30155460  0.15764796    -0.08300
C291        C  0.07656230  0.31400515  0.12082691    -0.02800
C292        C  0.07527433  0.29990377  0.08513680     0.04000
N293        N  0.07375051  0.31030815  0.04667755     0.66500
H294        H  0.07655957  0.26587728  0.05912045     0.15400
H295        H  0.07602049  0.31146352  0.18557264     0.15100
N296        N  0.07799563  0.26719596  0.19851969     0.74200
O297        O  0.09483704  0.32218576  0.02516485    -0.39200
O298        O  0.05072045  0.30351641  0.03158315    -0.39200
O299        O  0.10088971  0.27362423  0.21382683    -0.39900
O300        O  0.05762345  0.25926973  0.22124762    -0.39900
C301        C  0.37273418  0.48109790  0.24630121    -0.12200
C302        C  0.34899305  0.47574724  0.22544757     0.04800
C303        C  0.33689055  0.49195346  0.23302920    -0.07500
C304        C  0.34902126  0.51353363  0.26054590    -0.08300
C305        C  0.37387957  0.01958042  0.28038143    -0.02800
C306        C  0.38580238  0.00300142  0.27321414     0.04000
N307        N  0.40980556  0.00713225  0.29404397     0.66500
H308        H  0.38356369  0.96962219  0.23941311     0.15400
H309        H  0.33988283  0.52627823  0.26530540     0.15100
N310        N  0.31307152  0.48757155  0.21165118     0.74200
O311        O  0.40794168  0.99991807  0.33027279    -0.39200
O312        O  0.43039971  0.01092937  0.27418674    -0.39200
O313        O  0.29026955  0.47663446  0.22912211    -0.39900
O314        O  0.31539544  0.49778783  0.17720066    -0.39900
C315        C  0.37953662  0.49171704  0.02308775    -0.12200
C316        C  0.35122421  0.47770754  0.02949470     0.04800
C317        C  0.33493387  0.48613780  0.00842915    -0.07500
C318        C  0.34837238  0.01108914  0.48760097    -0.08300
C319        C  0.37541134  0.02157780  0.47459922    -0.02800
C320        C  0.39047495  0.00928092  0.48867990     0.04000
N321        N  0.41798210  0.01885975  0.47629316     0.66500
H322        H  0.39236199  0.48544787  0.03884762     0.15400
H323        H  0.33638853  0.02005649  0.47696777     0.15100
N324        N  0.30608332  0.47263980  0.01409904     0.74200
O325        O  0.43519628  0.54675112  0.50587372    -0.39200
O326        O  0.42301682  0.00548660  0.45071093    -0.39200
O327        O  0.29542461  0.97859271  0.03558712    -0.39900
O328        O  0.29058126  0.45463560  0.98940582    -0.39900
C329        C  0.33249220  0.34860148  0.00882892    -0.12200
C330        C  0.34938583  0.37444803  0.02555791     0.04800
C331        C  0.37745530  0.38848163  0.01535977    -0.07500
C332        C  0.38712875  0.37563480  0.48832406    -0.08300
C333        C  0.37030249  0.34928914  0.47300738    -0.02800
C334        C  0.34264838  0.33498247  0.48466193     0.04000
N335        N  0.32494742  0.30770993  0.47158979     0.66500
H336        H  0.31102775  0.33733111  0.01649053     0.15400
H337        H  0.40852820  0.38690984  0.48026123     0.15100
N338        N  0.39585072  0.41491479  0.03129285     0.74200
O339        O  0.31957555  0.28825409  0.49536809    -0.39200
O340        O  0.31058249  0.30352884  0.44053126    -0.39200
O341        O  0.41319656  0.41745475  0.05739889    -0.39900
O342        O  0.39764902  0.43595036  0.01488431    -0.39900
C343        C  0.34631223  0.37528321  0.26468808    -0.12200
C344        C  0.34757443  0.37181332  0.22322323     0.04800
C345        C  0.35954632  0.35654300  0.20931511    -0.07500
C346        C  0.37027581  0.34544810  0.23675018    -0.08300
C347        C  0.36959544  0.34942597  0.27823184    -0.02800
C348        C  0.35729542  0.36444529  0.29213201     0.04000
N349        N  0.35545417  0.36860872  0.33400804     0.66500
H350        H  0.33725447  0.38701364  0.27590299     0.15400
H351        H  0.37958650  0.33399126  0.22539214     0.15100
N352        N  0.36031297  0.35148838  0.16749413     0.74200
O353        O  0.37171596  0.39136053  0.34969564    -0.39200
O354        O  0.33516920  0.35124828  0.35374124    -0.39200
O355        O  0.38274024  0.36313301  0.14900590    -0.39900
O356        O  0.33959000  0.33229863  0.15077507    -0.39900
C357        C  0.21811003  0.41721079  0.15844671    -0.12200
C358        C  0.22967229  0.41597337  0.12171582     0.04800
C359        C  0.21647342  0.41656035  0.08586993    -0.07500
C360        C  0.19171363  0.41669846  0.08752348    -0.08300
C361        C  0.17902147  0.41560684  0.12425876    -0.02800
C362        C  0.19312675  0.41687609  0.16009184     0.04000
N363        N  0.18196719  0.41665335  0.19859270     0.66500
H364        H  0.22790912  0.41728260  0.18647048     0.15400
H365        H  0.18159011  0.41593938  0.05951448     0.15100
N366        N  0.22671690  0.41507498  0.04738853     0.74200
O367        O  0.16955049  0.39452568  0.21789847    -0.39200
O368        O  0.18882849  0.43896483  0.21615410    -0.39200
O369        O  0.22096048  0.39204329  0.03331346    -0.39900
O370        O  0.23585787  0.43548120  0.02430478    -0.39900
C371        C  0.22214164  0.29969682  0.09738364    -0.12200
C372        C  0.22964579  0.31704518  0.13090909     0.04800
C373        C  0.21282355  0.30801772  0.16533176    -0.07500
C374        C  0.18895985  0.28253859  0.16532123    -0.08300
C375        C  0.18075560  0.26577697  0.13120245    -0.02800
C376        C  0.19809853  0.27410276  0.09735515     0.04000
N377        N  0.19155195  0.25681983  0.06283251     0.66500
H378        H  0.23497139  0.30610180  0.07097272     0.15400
H379        H  0.17569739  0.27684504  0.19123764     0.15100
N380        N  0.21797563  0.32565773  0.19895129     0.74200
O381        O  0.19297016  0.26645588  0.02816692    -0.39200
O382        O  0.18566757  0.23219530  0.06677570    -0.39200
O383        O  0.21073317  0.34355629  0.19761968    -0.39900
O384        O  0.22573853  0.32061803  0.23179951    -0.39900
Fe385      Fe  0.35001409  0.42483214  0.62531848     1.65800
Fe386      Fe  0.29008171  0.39670625  0.67614578     1.73200
Fe387      Fe  0.28965192  0.39529613  0.57361442     1.54400
O388        O  0.31572913  0.43289231  0.54728935    -0.81600
O389        O  0.26552781  0.35645844  0.66039177    -0.79900
O390        O  0.35247861  0.45446881  0.58669550    -0.84100
O391        O  0.35319875  0.40331838  0.57814242    -0.79000
O392        O  0.26448111  0.41069726  0.58969012    -0.80800
O393        O  0.31642580  0.38594645  0.70449284    -0.83500
C394        C  0.33737598  0.38575727  0.55308100     0.97300
C395        C  0.33849368  0.45369967  0.55629784     1.04700
O396        O  0.30982386  0.40553733  0.62488726    -1.12500
O397        O  0.31205893  0.43626423  0.69693864    -0.74900
O398        O  0.35351144  0.44970137  0.67285638    -0.78400
O399        O  0.31219166  0.37845914  0.55073189    -0.79100
C400        C  0.33747487  0.45288833  0.69588095     0.96200
O401        O  0.35137189  0.39672615  0.66351336    -0.77100
O402        O  0.26078390  0.40573028  0.65576725    -0.82300
C403        C  0.25373946  0.34482817  0.62789617     0.98800
C404        C  0.25334585  0.41099987  0.62252865     1.04700
O405        O  0.26063474  0.35664928  0.59391647    -0.77900
C406        C  0.33806134  0.38550396  0.69515291     1.03000
Fe407      Fe  0.06841272  0.42497954  0.62362217     1.65800
Fe408      Fe  0.09780066  0.39359568  0.67511548     1.73200
Fe409      Fe  0.09971709  0.39542610  0.57246094     1.54400
O410        O  0.06167326  0.38029484  0.54685932    -0.81600
O411        O  0.13720610  0.40474895  0.65782967    -0.79900
O412        O  0.04275626  0.40187333  0.57754890    -0.84100
O413        O  0.09528700  0.45429147  0.58404539    -0.79000
O414        O  0.08846654  0.35615610  0.58998523    -0.80800
O415        O  0.11311251  0.43191248  0.70024819    -0.83500
C416        C  0.10957552  0.45371716  0.55514114     0.97300
C417        C  0.04235144  0.38541783  0.55125271     1.04700
O418        O  0.08867222  0.40470878  0.62373042    -1.12500
O419        O  0.05957108  0.38038881  0.69963908    -0.74900
O420        O  0.03925649  0.39831879  0.66313568    -0.78400
O421        O  0.11234292  0.43321614  0.54744495    -0.79100
C422        C  0.03914159  0.38327853  0.69160470     0.96200
O423        O  0.09091390  0.45050057  0.67010584    -0.77100
O424        O  0.08371398  0.35411146  0.65616941    -0.82300
C425        C  0.15038206  0.41028475  0.62515626     0.98800
C426        C  0.08265710  0.34298699  0.62267951     1.04700
O427        O  0.13927754  0.40936420  0.59157939    -0.77900
C428        C  0.10737387  0.45091414  0.69647262     1.03000
Fe429      Fe  0.07309540  0.14706092  0.62536925     1.65800
Fe430      Fe  0.10259100  0.20777844  0.57547072     1.73200
Fe431      Fe  0.10093403  0.20651689  0.67791027     1.54400
O432        O  0.06132365  0.18477977  0.69753113    -0.81600
O433        O  0.14052436  0.23678514  0.59713935    -0.79900
O434        O  0.04755850  0.14349302  0.67236652    -0.84100
O435        O  0.10090920  0.14554279  0.66379015    -0.79000
O436        O  0.09234501  0.23598852  0.65790224    -0.80800
O437        O  0.12052172  0.18652731  0.55248734    -0.83500
C438        C  0.11136601  0.15839206  0.69604699     0.97300
C439        C  0.04413819  0.15952627  0.69535391     1.04700
O440        O  0.09230857  0.18714901  0.62614734    -1.12500
O441        O  0.06611571  0.18140357  0.54727272    -0.74900
O442        O  0.04346294  0.14493062  0.58670625    -0.78400
O443        O  0.11067736  0.17973383  0.70616507    -0.79100
C444        C  0.04495815  0.15894694  0.55599680     0.96200
O445        O  0.09590527  0.14475341  0.57834857    -0.77100
O446        O  0.08564316  0.23142497  0.59220498    -0.82300
C447        C  0.15289076  0.24257417  0.63070957     0.98800
C448        C  0.08561413  0.24253826  0.62526676     1.04700
O449        O  0.14143020  0.23068830  0.66319191    -0.77900
C450        C  0.11392267  0.16152239  0.55442944     1.03000
Fe451      Fe  0.42337116  0.35061092  0.87488363     1.65800
Fe452      Fe  0.39404910  0.29062669  0.82447920     1.73200
Fe453      Fe  0.39186850  0.29121356  0.92645615     1.54400
O454        O  0.42823379  0.31844559  0.95492232    -0.81600
O455        O  0.35331843  0.26762155  0.83925725    -0.79900
O456        O  0.45345024  0.35119839  0.91086036    -0.84100
O457        O  0.40356629  0.35479761  0.92441082    -0.79000
O458        O  0.40859289  0.26691835  0.91269205    -0.80800
O459        O  0.38522183  0.31834507  0.79576748    -0.83500
C460        C  0.38308460  0.33871593  0.94541934     0.97300
C461        C  0.45070342  0.33887168  0.94391292     1.04700
O462        O  0.40308188  0.31066514  0.87523614    -1.12500
O463        O  0.43388809  0.31139081  0.80434022    -0.74900
O464        O  0.44651568  0.35333528  0.82532325    -0.78400
O465        O  0.37341753  0.31306029  0.94484768    -0.79100
C466        C  0.44988437  0.33701206  0.80310102     0.96200
O467        O  0.39448382  0.35224385  0.83866791    -0.77100
O468        O  0.40148242  0.26037262  0.84684974    -0.82300
C469        C  0.34178781  0.25566221  0.87168366     0.98800
C470        C  0.40764235  0.25430408  0.88065433     1.04700
O471        O  0.35435058  0.26158681  0.90496284    -0.77900
C472        C  0.38413417  0.33956932  0.80611624     1.03000
Fe473      Fe  0.42708941  0.07280166  0.87620252     1.65800
Fe474      Fe  0.39618787  0.10167736  0.92806212     1.73200
Fe475      Fe  0.39597491  0.10265321  0.82609578     1.54400
O476        O  0.43515735  0.12079912  0.80393659    -0.81600
O477        O  0.35788966  0.09302782  0.90843163    -0.79900
O478        O  0.45022279  0.09368387  0.82720360    -0.84100
O479        O  0.39896503  0.04268712  0.83944824    -0.79000
O480        O  0.40431952  0.14082835  0.84685716    -0.80800
O481        O  0.37881798  0.06205318  0.94858464    -0.83500
C482        C  0.38714747  0.04429443  0.80796095     0.97300
C483        C  0.45231757  0.11247590  0.80403757     1.04700
O484        O  0.40638332  0.09241241  0.87672733    -1.12500
O485        O  0.43320977  0.11166843  0.95493141    -0.74900
O486        O  0.45715950  0.10146264  0.91237416    -0.78400
O487        O  0.38616698  0.06574016  0.79869163    -0.79100
C488        C  0.45520760  0.11235152  0.94448811     0.96200
O489        O  0.40727396  0.04866643  0.92551765    -0.77100
O490        O  0.41213736  0.14225802  0.91257385    -0.82300
C491        C  0.34460596  0.08625570  0.87566788     0.98800
C492        C  0.41107852  0.15354435  0.88011074     1.04700
O493        O  0.35561751  0.08580478  0.84278626    -0.77900
C494        C  0.38800790  0.04558872  0.94836889     1.03000
Fe495      Fe  0.14558881  0.07332768  0.87410304     1.65800
Fe496      Fe  0.20637340  0.10413988  0.92456522     1.73200
Fe497      Fe  0.20555286  0.09966613  0.82178325     1.54400
O498        O  0.18158470  0.06041666  0.80088469    -0.81600
O499        O  0.23265010  0.14266580  0.90258211    -0.79900
O500        O  0.14170500  0.04480386  0.83180911    -0.84100
O501        O  0.14377701  0.09811171  0.83048110    -0.79000
O502        O  0.23295099  0.08818295  0.84243102    -0.80800
O503        O  0.18271470  0.11921436  0.94861495    -0.83500
C504        C  0.15847744  0.11117144  0.80079389     0.97300
C505        C  0.15690503  0.04228704  0.80617011     1.04700
O506        O  0.18585843  0.09234191  0.87352183    -1.12500
O507        O  0.18235738  0.06689775  0.95225263    -0.74900
O508        O  0.14307583  0.04656431  0.91836498    -0.78400
O509        O  0.18125034  0.11266876  0.79360773    -0.79100
C510        C  0.15837459  0.04706445  0.94678934     0.96200
O511        O  0.14314116  0.09908253  0.91598093    -0.77100
O512        O  0.23333844  0.09094410  0.90877902    -0.82300
C513        C  0.24112934  0.15327749  0.86820791     0.98800
C514        C  0.24224896  0.08656564  0.87639526     1.04700
O515        O  0.23220219  0.13979246  0.83600797    -0.77900
C516        C  0.15869507  0.11500495  0.94300346     1.03000
C517        C  0.27595236  0.07712076  0.84157704    -0.12200
C518        C  0.26560335  0.08109410  0.87775888     0.04800
C519        C  0.27968307  0.08262958  0.91374686    -0.07500
C520        C  0.30430165  0.08225035  0.91248443    -0.08300
C521        C  0.31573587  0.08045595  0.87597872    -0.02800
C522        C  0.30054387  0.07660817  0.84035586     0.04000
N523        N  0.31026726  0.07337456  0.80235174     0.66500
H524        H  0.26540255  0.07530352  0.81356985     0.15400
H525        H  0.31516218  0.08475609  0.94040769     0.15100
N526        N  0.27030126  0.08625692  0.95176578     0.74200
O527        O  0.30946992  0.05116483  0.79386849    -0.39200
O528        O  0.31761957  0.09184478  0.77608615    -0.39200
O529        O  0.25607845  0.06572704  0.97360053    -0.39900
O530        O  0.28007921  0.10995745  0.96630230    -0.39900
C531        C  0.30369424  0.21851151  0.83334021    -0.12200
C532        C  0.31334061  0.23243316  0.86993158     0.04800
C533        C  0.29643010  0.22205880  0.90417833    -0.07500
C534        C  0.27188135  0.19732635  0.90176680    -0.08300
C535        C  0.26362334  0.18209343  0.86622610    -0.02800
C536        C  0.27918650  0.19365181  0.83113151     0.04000
N537        N  0.27139146  0.17981086  0.79344214     0.66500
H538        H  0.31592791  0.22614017  0.80644526     0.15400
H539        H  0.25985147  0.18938022  0.92878822     0.15100
N540        N  0.30333157  0.23606025  0.94178601     0.74200
O541        O  0.25631642  0.18407516  0.76995769    -0.39200
O542        O  0.28303751  0.16704532  0.78099959    -0.39200
O543        O  0.28621769  0.24138372  0.95761417    -0.39900
O544        O  0.32067694  0.23459368  0.96408139    -0.39900
C545        C  0.42197601  0.22326463  0.84861537    -0.12200
C546        C  0.41266050  0.23075711  0.88277082     0.04800
C547        C  0.40619082  0.21420801  0.91745089    -0.07500
C548        C  0.40784636  0.19021358  0.91672535    -0.08300
C549        C  0.41555358  0.18186251  0.88184025    -0.02800
C550        C  0.42370359  0.19923812  0.84801232     0.04000
N551        N  0.43407605  0.19293789  0.81302127     0.66500
H552        H  0.42765112  0.23596065  0.82200074     0.15400
H553        H  0.40123258  0.17711023  0.94293370     0.15100
N554        N  0.39537685  0.21996711  0.95245461     0.74200
O555        O  0.42024382  0.18610098  0.78106900    -0.39200
O556        O  0.45863610  0.19841464  0.81227389    -0.39200
O557        O  0.37003919  0.21108024  0.95501341    -0.39900
O558        O  0.41025722  0.22980730  0.98308612    -0.39900
C559        C  0.47414147  0.12883786  0.51286902    -0.12200
C560        C  0.47901598  0.12557114  0.97179147     0.04800
C561        C  0.00522038  0.13373739  0.95709486    -0.07500
C562        C  0.02666354  0.14554350  0.98489367    -0.08300
C563        C  0.02163256  0.14814712  0.52804950    -0.02800
C564        C  0.49551406  0.13989885  0.54082095     0.04000
N565        N  0.49016734  0.14477346  0.58093412     0.66500
H566        H  0.45394642  0.12397598  0.52269829     0.15400
H567        H  0.04732430  0.15241471  0.97485847     0.15100
N568        N  0.01144301  0.13117900  0.91636940     0.74200
O569        O  0.49361835  0.16795780  0.59038329    -0.39200
O570        O  0.47814787  0.12499653  0.60492715    -0.39200
O571        O  0.02141243  0.15186079  0.89375703    -0.39900
O572        O  0.01200997  0.11001209  0.90553502    -0.39900
C573        C  0.98806071  0.15194411  0.76712654    -0.12200
C574        C  0.47559353  0.12487051  0.77595909     0.04800
C575        C  0.48732832  0.10971230  0.76067525    -0.07500
C576        C  0.50922945  0.12190365  0.73419970    -0.08300
C577        C  0.01945545  0.14785129  0.72116639    -0.02800
C578        C  0.01096168  0.16421900  0.74207255     0.04000
N579        N  0.02500621  0.19324675  0.73790405     0.66500
H580        H  0.98201695  0.16472751  0.78337373     0.15400
H581        H  0.51801223  0.10983389  0.72337822     0.15100
N582        N  0.47650694  0.08147771  0.77019857     0.74200
O583        O  0.01699208  0.20401956  0.71190755    -0.39200
O584        O  0.04132085  0.20793361  0.76501243    -0.39200
O585        O  0.46091558  0.06362570  0.74540477    -0.39900
O586        O  0.48708189  0.07476234  0.79824037    -0.39900
C587        C  0.14376704  0.14139975  0.70808741    -0.12200
C588        C  0.12451845  0.14783730  0.72326471     0.04800
C589        C  0.11760181  0.14352152  0.76415900    -0.07500
C590        C  0.12938889  0.13215954  0.78892828    -0.08300
C591        C  0.14823801  0.12501777  0.77375649    -0.02800
C592        C  0.15581800  0.13024866  0.73293336     0.04000
N593        N  0.17477893  0.12333909  0.71576418     0.66500
H594        H  0.14938555  0.14495385  0.67676989     0.15400
H595        H  0.12333637  0.12846356  0.82009423     0.15100
N596        N  0.09738118  0.14899709  0.78041210     0.74200
O597        O  0.16616519  0.10008309  0.70020023    -0.39200
O598        O  0.19909226  0.14184682  0.70974303    -0.39200
O599        O  0.07247037  0.13116991  0.77771515    -0.39900
O600        O  0.10451977  0.16947106  0.80281023    -0.39900
C601        C  0.12156442  0.15062098  0.98475641    -0.12200
C602        C  0.12687955  0.15119161  0.52644593     0.04800
C603        C  0.14467323  0.14209666  0.53992998    -0.07500
C604        C  0.15579671  0.13147912  0.51247675    -0.08300
C605        C  0.14798511  0.12806588  0.97060832    -0.02800
C606        C  0.13175240  0.13915500  0.95712004     0.04000
N607        N  0.12552662  0.13904671  0.91553819     0.66500
H608        H  0.10913835  0.15907929  0.97403642     0.15400
H609        H  0.16937682  0.12444474  0.52336118     0.15100
N610        N  0.15137271  0.14326254  0.58146598     0.74200
O611        O  0.10358945  0.11975050  0.90166654    -0.39200
O612        O  0.13888692  0.16047119  0.89500353    -0.39200
O613        O  0.13933948  0.12198069  0.60268989    -0.39900
O614        O  0.17201637  0.16413085  0.59525294    -0.39900
C615        C  0.14028201  0.00373111  0.54333815    -0.12200
C616        C  0.12289120  0.47749596  0.52819504     0.04800
C617        C  0.11600385  0.47415283  0.98656260    -0.07500
C618        C  0.12785741  0.49668818  0.96080389    -0.08300
C619        C  0.14736330  0.02350088  0.97474264    -0.02800
C620        C  0.15270406  0.02645669  0.51772554     0.04000
N621        N  0.17070501  0.05267627  0.53458452     0.66500
H622        H  0.14469168  0.00641536  0.57517952     0.15400
H623        H  0.12274840  0.49357152  0.92919420     0.15100
N624        N  0.09705041  0.44793661  0.97056776     0.74200
O625        O  0.16112814  0.06700372  0.54843071    -0.39200
O626        O  0.19520374  0.05935348  0.54176639    -0.39200
O627        O  0.07206879  0.44080926  0.96830060    -0.39900
O628        O  0.10572123  0.43380393  0.95337482    -0.39900
C629        C  0.14781030  0.48567344  0.73447700    -0.12200
C630        C  0.12013518  0.47435086  0.72435656     0.04800
C631        C  0.10485573  0.48526220  0.74174355    -0.07500
C632        C  0.11716537  0.00657381  0.76887597    -0.08300
C633        C  0.14472425  0.01791957  0.77981203    -0.02800
C634        C  0.16023194  0.00698207  0.76299816     0.04000
N635        N  0.18830877  0.01764901  0.77331899     0.66500
H636        H  0.15980968  0.47752463  0.72123965     0.15400
H637        H  0.10498960  0.01487695  0.78097302     0.15100
N638        N  0.07654302  0.47424620  0.73267451     0.74200
O639        O  0.19455757  0.00950549  0.80478166    -0.39200
O640        O  0.20661331  0.03180441  0.74817036    -0.39200
O641        O  0.05878329  0.45753676  0.75656644    -0.39900
O642        O  0.06947700  0.48478568  0.70501652    -0.39900
C643        C  0.99896332  0.38253675  0.72320581    -0.12200
C644        C  0.01458718  0.36967984  0.71751685     0.04800
C645        C  0.00720281  0.34508541  0.73835957    -0.07500
C646        C  0.48432135  0.33266720  0.76101719    -0.08300
C647        C  0.47298128  0.34857130  0.77430926    -0.02800
C648        C  0.48364580  0.37541127  0.75913204     0.04000
N649        N  0.47253195  0.39236090  0.77044043     0.66500
H650        H  0.00416738  0.40135612  0.70749778     0.15400
H651        H  0.47628511  0.31195258  0.77191621     0.15100
N652        N  0.02157892  0.33045355  0.73222168     0.74200
O653        O  0.48416207  0.41020012  0.79734821    -0.39200
O654        O  0.45422970  0.39274036  0.74906671    -0.39200
O655        O  0.03609070  0.32911987  0.76002882    -0.39900
O656        O  0.01650061  0.31554575  0.70162162    -0.39900
C657        C  0.02294772  0.37073685  0.98276808    -0.12200
C658        C  0.01865385  0.37219724  0.52389787     0.04800
C659        C  0.49150188  0.35872964  0.53854338    -0.07500
C660        C  0.46965113  0.34746418  0.51141069    -0.08300
C661        C  0.47408337  0.34944472  0.97174032    -0.02800
C662        C  0.00127073  0.36012055  0.95524859     0.04000
N663        N  0.00669901  0.35811107  0.91393503     0.66500
H664        H  0.04343502  0.37753173  0.97201647     0.15400
H665        H  0.44901121  0.33717013  0.52300199     0.15100
N666        N  0.48596643  0.35509348  0.58061568     0.74200
O667        O  0.01233363  0.37786001  0.89058461    -0.39200
O668        O  0.50339261  0.32556567  0.91308894    -0.39200
O669        O  0.47249677  0.36482769  0.59695444    -0.39900
O670        O  0.49153144  0.33931921  0.60032861    -0.39900
C671        C  0.07680973  0.27600038  0.58853249    -0.12200
C672        C  0.07909435  0.26511727  0.62540322     0.04800
C673        C  0.07718984  0.27760290  0.66124499    -0.07500
C674        C  0.07573836  0.30162472  0.65927440    -0.08300
C675        C  0.07660412  0.31412658  0.62247363    -0.02800
C676        C  0.07546523  0.30013572  0.58674632     0.04000
N677        N  0.07374280  0.31046068  0.54831450     0.66500
H678        H  0.07723676  0.26643638  0.56060769     0.15400
H679        H  0.07579490  0.31146229  0.68718475     0.15100
N680        N  0.07782562  0.26715353  0.70014387     0.74200
O681        O  0.09444878  0.32140492  0.52592328    -0.39200
O682        O  0.05070486  0.30471953  0.53431751    -0.39200
O683        O  0.10054497  0.27263290  0.71514435    -0.39900
O684        O  0.05781068  0.26032703  0.72326973    -0.39900
C685        C  0.37433221  0.48265971  0.74238172    -0.12200
C686        C  0.34948326  0.47613324  0.72397584     0.04800
C687        C  0.33649950  0.49117410  0.73393540    -0.07500
C688        C  0.34878886  0.51269219  0.76153449    -0.08300
C689        C  0.37442340  0.02055976  0.78032669    -0.02800
C690        C  0.38505495  0.00263754  0.77557182     0.04000
N691        N  0.40748136  0.00532100  0.79916311     0.66500
H692        H  0.38208055  0.96825992  0.74358410     0.15400
H693        H  0.33891910  0.52453778  0.76821139     0.15100
N694        N  0.31148770  0.48559892  0.71505750     0.74200
O695        O  0.40308037  0.99546424  0.83412827    -0.39200
O696        O  0.42965999  0.01115239  0.78215841    -0.39200
O697        O  0.28940699  0.47356910  0.73435388    -0.39900
O698        O  0.31192395  0.49568300  0.68106680    -0.39900
C699        C  0.37815870  0.49054599  0.52082276    -0.12200
C700        C  0.35017215  0.47768750  0.52931174     0.04800
C701        C  0.33416142  0.48754963  0.51102622    -0.07500
C702        C  0.34755307  0.00718249  0.98096104    -0.08300
C703        C  0.37595531  0.02201169  0.97600312    -0.02800
C704        C  0.39244722  0.01409216  0.99762598     0.04000
N705        N  0.42154872  0.02927497  0.99471559     0.66500
H706        H  0.39073962  0.48314250  0.53445178     0.15400
H707        H  0.33465703  0.01303596  0.96448204     0.15100
N708        N  0.30560351  0.47507502  0.51876099     0.74200
O709        O  0.43505630  0.55060660  0.00844372    -0.39200
O710        O  0.43423138  0.01843409  0.97912418    -0.39200
O711        O  0.30388962  0.98640929  0.55930717    -0.39900
O712        O  0.28884366  0.45951347  0.49276203    -0.39900
C713        C  0.33219240  0.34728286  0.51015905    -0.12200
C714        C  0.34902656  0.37357960  0.52553485     0.04800
C715        C  0.37693615  0.38770508  0.51462057    -0.07500
C716        C  0.38774701  0.37663848  0.98877040    -0.08300
C717        C  0.37084118  0.35069177  0.97226057    -0.02800
C718        C  0.34296836  0.33661877  0.98277375     0.04000
N719        N  0.32503341  0.30980531  0.96814946     0.66500
H720        H  0.31087388  0.33591275  0.51861338     0.15400
H721        H  0.40929038  0.38771982  0.98151555     0.15100
N722        N  0.39521755  0.41452351  0.52938858     0.74200
O723        O  0.31560566  0.29007296  0.99246685    -0.39200
O724        O  0.31443456  0.30668426  0.93381361    -0.39200
O725        O  0.41234804  0.41771592  0.55626008    -0.39900
O726        O  0.39722502  0.43512326  0.51126048    -0.39900
C727        C  0.34440460  0.37266639  0.76446340    -0.12200
C728        C  0.34865677  0.37224052  0.72300188     0.04800
C729        C  0.36417491  0.36042906  0.70931042    -0.07500
C730        C  0.37495632  0.34941797  0.73683018    -0.08300
C731        C  0.37117064  0.35036263  0.77825621    -0.02800
C732        C  0.35575120  0.36220969  0.79203538     0.04000
N733        N  0.35108129  0.36342302  0.83387930     0.66500
H734        H  0.33278285  0.38182548  0.77569755     0.15400
H735        H  0.38687625  0.34055273  0.72569874     0.15100
N736        N  0.36896710  0.35916341  0.66752348     0.74200
O737        O  0.36584971  0.38511224  0.85317999    -0.39200
O738        O  0.32975233  0.34463012  0.84985923    -0.39200
O739        O  0.39219428  0.37506698  0.65301850    -0.39900
O740        O  0.35157022  0.33951595  0.64672338    -0.39900
C741        C  0.21797977  0.41675995  0.65939422    -0.12200
C742        C  0.22970423  0.41606947  0.62250347     0.04800
C743        C  0.21695133  0.41781668  0.58683532    -0.07500
C744        C  0.19223712  0.41801167  0.58875150    -0.08300
C745        C  0.17928904  0.41616105  0.62550243    -0.02800
C746        C  0.19320345  0.41685702  0.66123356     0.04000
N747        N  0.18220828  0.41686259  0.69976923     0.66500
H748        H  0.22755050  0.41623234  0.68733607     0.15400
H749        H  0.18241319  0.41805076  0.56081202     0.15100
N750        N  0.22785019  0.41806821  0.54812545     0.74200
O751        O  0.17031043  0.39498043  0.71973366    -0.39200
O752        O  0.18856893  0.43930062  0.71656317    -0.39200
O753        O  0.22286035  0.39573640  0.53224992    -0.39900
O754        O  0.23584345  0.43895566  0.52627348    -0.39900
C755        C  0.22374394  0.29779096  0.59982011    -0.12200
C756        C  0.22963855  0.31702828  0.63050408     0.04800
C757        C  0.21123111  0.31012844  0.66285855    -0.07500
C758        C  0.18752172  0.28464919  0.66391010    -0.08300
C759        C  0.18105109  0.26587983  0.63261482    -0.02800
C760        C  0.19975399  0.27213696  0.60089043     0.04000
N761        N  0.19470538  0.25250030  0.57004035     0.66500
H762        H  0.23781562  0.30268751  0.57507112     0.15400
H763        H  0.17299222  0.28045037  0.68783079     0.15100
N764        N  0.21467878  0.32991338  0.69250921     0.74200
O765        O  0.19666756  0.25927573  0.53360115    -0.39200
O766        O  0.18895273  0.22846830  0.57920387    -0.39200
O767        O  0.20848633  0.34804381  0.68420808    -0.39900
O768        O  0.21991809  0.32683180  0.72831406    -0.39900
Fe769      Fe  0.35072822  0.92468589  0.12614674     1.65800
Fe770      Fe  0.29084614  0.89743959  0.17656461     1.73200
Fe771      Fe  0.29076543  0.89513364  0.07445526     1.54400
O772        O  0.31801848  0.93177518  0.04672186    -0.81600
O773        O  0.26643527  0.85683891  0.16217436    -0.79900
O774        O  0.35340302  0.95467697  0.08808532    -0.84100
O775        O  0.35368268  0.90343623  0.07831730    -0.79000
O776        O  0.26709080  0.91241027  0.08904436    -0.80800
O777        O  0.31736173  0.88732530  0.20572164    -0.83500
C778        C  0.33760088  0.88482747  0.05468614     0.97300
C779        C  0.34023222  0.95309140  0.05628485     1.04700
O780        O  0.31067917  0.90568815  0.12560854    -1.12500
O781        O  0.31277663  0.93737915  0.19575107    -0.74900
O782        O  0.35448419  0.94924074  0.17441166    -0.78400
O783        O  0.31218212  0.87659277  0.05375550    -0.79100
C784        C  0.33836396  0.95324205  0.19606492     0.96200
O785        O  0.35124937  0.89592742  0.16362183    -0.77100
O786        O  0.26149281  0.90591983  0.15480142    -0.82300
C787        C  0.25408442  0.84534506  0.12993492     0.98800
C788        C  0.25510637  0.91204652  0.12133927     1.04700
O789        O  0.26068605  0.85739110  0.09606923    -0.77900
C790        C  0.33827630  0.88567476  0.19585585     1.03000
Fe791      Fe  0.07045921  0.92566009  0.12328023     1.65800
Fe792      Fe  0.10046722  0.89450286  0.17341669     1.73200
Fe793      Fe  0.10143005  0.89639673  0.07072601     1.54400
O794        O  0.06290690  0.88057799  0.04645484    -0.81600
O795        O  0.13947704  0.90554403  0.15487710    -0.79900
O796        O  0.04480538  0.90304406  0.07678626    -0.84100
O797        O  0.09719456  0.95535498  0.08419322    -0.79000
O798        O  0.09117580  0.85730375  0.08816377    -0.80800
O799        O  0.11604569  0.93271587  0.19892502    -0.83500
C800        C  0.11054013  0.95456456  0.05417905     0.97300
C801        C  0.04389172  0.88617699  0.05077877     1.04700
O802        O  0.09083518  0.90557970  0.12246800    -1.12500
O803        O  0.06272001  0.88157841  0.19914021    -0.74900
O804        O  0.04155148  0.89849007  0.16241599    -0.78400
O805        O  0.11292105  0.93395789  0.04550806    -0.79100
C806        C  0.04203491  0.88405191  0.19132468     0.96200
O807        O  0.09275749  0.95066598  0.17042651    -0.77100
O808        O  0.08606262  0.85503710  0.15428074    -0.82300
C809        C  0.15256129  0.91159631  0.12212135     0.98800
C810        C  0.08529849  0.84404635  0.12079466     1.04700
O811        O  0.14137883  0.91108495  0.08876075    -0.77900
C812        C  0.10950926  0.95120830  0.19640749     1.03000
Fe813      Fe  0.07327086  0.64675934  0.12353403     1.65800
Fe814      Fe  0.10297777  0.70773397  0.07437429     1.73200
Fe815      Fe  0.10110073  0.70599999  0.17657651     1.54400
O816        O  0.06122926  0.68426893  0.19566649    -0.81600
O817        O  0.14034648  0.73728450  0.09694690    -0.79900
O818        O  0.04735854  0.64294868  0.17025459    -0.84100
O819        O  0.10041846  0.64466951  0.16259539    -0.79000
O820        O  0.09312353  0.73592960  0.15629892    -0.80800
O821        O  0.12183728  0.68716498  0.05218996    -0.83500
C822        C  0.11065864  0.65721648  0.19516058     0.97300
C823        C  0.04401271  0.65897744  0.19339316     1.04700
O824        O  0.09254154  0.68682691  0.12476786    -1.12500
O825        O  0.06706337  0.68111363  0.04490234    -0.74900
O826        O  0.04402625  0.64490743  0.08453106    -0.78400
O827        O  0.11037062  0.67884392  0.20485144    -0.79100
C828        C  0.04575742  0.65877802  0.05357307     0.96200
O829        O  0.09666469  0.64500561  0.07668460    -0.77100
O830        O  0.08516366  0.73057912  0.09086460    -0.82300
C831        C  0.15305179  0.74262080  0.13020636     0.98800
C832        C  0.08600374  0.74226617  0.12375951     1.04700
O833        O  0.14182727  0.72996711  0.16237547    -0.77900
C834        C  0.11514321  0.66211351  0.05355108     1.03000
Fe835      Fe  0.42173192  0.84927195  0.37472823     1.65800
Fe836      Fe  0.39303526  0.78962177  0.32392782     1.73200
Fe837      Fe  0.39141367  0.78965694  0.42575844     1.54400
O838        O  0.42768773  0.81740680  0.45397115    -0.81600
O839        O  0.35234464  0.76632706  0.33878285    -0.79900
O840        O  0.45228184  0.85027048  0.40971437    -0.84100
O841        O  0.40214608  0.85270102  0.42502652    -0.79000
O842        O  0.40913933  0.76638139  0.41106161    -0.80800
O843        O  0.38398445  0.81726346  0.29577667    -0.83500
C844        C  0.38200149  0.83639807  0.44642230     0.97300
C845        C  0.44989990  0.83811786  0.44278919     1.04700
O846        O  0.40198973  0.80937690  0.37479581    -1.12500
O847        O  0.43290557  0.81078488  0.30415231    -0.74900
O848        O  0.44464370  0.85267374  0.32449740    -0.78400
O849        O  0.37239046  0.81075297  0.44519137    -0.79100
C850        C  0.44848364  0.83646545  0.30271881     0.96200
O851        O  0.39229590  0.85042968  0.33953997    -0.77100
O852        O  0.40088664  0.75961664  0.34560618    -0.82300
C853        C  0.34106524  0.75401290  0.37113023     0.98800
C854        C  0.40818901  0.75400170  0.37880145     1.04700
O855        O  0.35394654  0.75960313  0.40419113    -0.77900
C856        C  0.38239738  0.83811393  0.30663643     1.03000
Fe857      Fe  0.42642267  0.57199551  0.37602334     1.65800
Fe858      Fe  0.39675509  0.60268093  0.42644720     1.73200
Fe859      Fe  0.39598184  0.60192921  0.32441452     1.54400
O860        O  0.43524900  0.61907803  0.30180443    -0.81600
O861        O  0.35915270  0.59573523  0.40633429    -0.79900
O862        O  0.45049605  0.59274773  0.32747392    -0.84100
O863        O  0.39842103  0.54197462  0.33921499    -0.79000
O864        O  0.40509456  0.64043598  0.34420929    -0.80800
O865        O  0.37804651  0.56311515  0.44791844    -0.83500
C866        C  0.38612030  0.54312422  0.30805375     0.97300
C867        C  0.45279106  0.61119832  0.30337880     1.04700
O868        O  0.40633764  0.59218949  0.37554683    -1.12500
O869        O  0.43299926  0.61131338  0.45446488    -0.74900
O870        O  0.45643329  0.60009567  0.41266814    -0.78400
O871        O  0.38512354  0.56445187  0.29820574    -0.79100
C872        C  0.45461424  0.61102742  0.44477920     0.96200
O873        O  0.40546459  0.54832989  0.42500878    -0.77100
O874        O  0.41435633  0.64320911  0.40953241    -0.82300
C875        C  0.34544521  0.58854787  0.37398451     0.98800
C876        C  0.41274911  0.65391483  0.37676233     1.04700
O877        O  0.35565304  0.58622619  0.34135366    -0.77900
C878        C  0.38654590  0.54604676  0.44800070     1.03000
Fe879      Fe  0.14425919  0.57239410  0.37646910     1.65800
Fe880      Fe  0.20549613  0.60391379  0.42543228     1.73200
Fe881      Fe  0.20347783  0.59901895  0.32284351     1.54400
O882        O  0.18108089  0.55871296  0.30498717    -0.81600
O883        O  0.23245571  0.64163040  0.40170519    -0.79900
O884        O  0.14037921  0.54463304  0.33258638    -0.84100
O885        O  0.14170360  0.59772568  0.33447175    -0.79000
O886        O  0.23364672  0.59141500  0.34350261    -0.80800
O887        O  0.18293926  0.62064382  0.44813179    -0.83500
C888        C  0.15480323  0.60821108  0.30248226     0.97300
C889        C  0.15594633  0.54124778  0.30862446     1.04700
O890        O  0.18444986  0.59174579  0.37500277    -1.12500
O891        O  0.18096582  0.56749632  0.45523095    -0.74900
O892        O  0.14271121  0.54523051  0.41923186    -0.78400
O893        O  0.17668498  0.60829840  0.29361693    -0.79100
C894        C  0.15766077  0.54678832  0.44881364     0.96200
O895        O  0.14197566  0.59739774  0.41986432    -0.77100
O896        O  0.23138516  0.58924914  0.40992576    -0.82300
C897        C  0.23897882  0.65292138  0.36737871     0.98800
C898        C  0.24220412  0.58818461  0.37715681     1.04700
O899        O  0.22804312  0.64009381  0.33519097    -0.77900
C900        C  0.15833072  0.61510817  0.44446469     1.03000
C901        C  0.27627181  0.57950206  0.34159749    -0.12200
C902        C  0.26667228  0.58447549  0.37778910     0.04800
C903        C  0.28227511  0.58847993  0.41299232    -0.07500
C904        C  0.30669969  0.58773342  0.41125916    -0.08300
C905        C  0.31704290  0.58419018  0.37476814    -0.02800
C906        C  0.30117316  0.57958646  0.33968565     0.04000
N907        N  0.31066012  0.57654206  0.30140808     0.66500
H908        H  0.26488020  0.57649402  0.31406452     0.15400
H909        H  0.31842752  0.59162943  0.43865114     0.15100
N910        N  0.27511700  0.59588236  0.45013978     0.74200
O911        O  0.30634375  0.55336626  0.29011105    -0.39200
O912        O  0.32199729  0.59672148  0.27793556    -0.39200
O913        O  0.26701092  0.57921913  0.47902284    -0.39900
O914        O  0.28158070  0.62047205  0.45628775    -0.39900
C915        C  0.30187775  0.71788346  0.33262585    -0.12200
C916        C  0.31240825  0.73104018  0.36955534     0.04800
C917        C  0.29590165  0.72046263  0.40413904    -0.07500
C918        C  0.27082607  0.69629425  0.40158624    -0.08300
C919        C  0.26164973  0.68169131  0.36556675    -0.02800
C920        C  0.27682590  0.69350521  0.33030501     0.04000
N921        N  0.26806251  0.68030235  0.29228434     0.66500
H922        H  0.31376496  0.72573049  0.30547102     0.15400
H923        H  0.25913458  0.68814803  0.42884967     0.15100
N924        N  0.30390102  0.73358178  0.44235106     0.74200
O925        O  0.25299407  0.68548710  0.27019425    -0.39200
O926        O  0.27871271  0.66699011  0.27825730    -0.39200
O927        O  0.28795355  0.73985515  0.45977607    -0.39900
O928        O  0.32089100  0.73052768  0.46324871    -0.39900
C929        C  0.41817906  0.72102910  0.34309280    -0.12200
C930        C  0.41461693  0.73130851  0.37960086     0.04800
C931        C  0.41486302  0.71802111  0.41553628    -0.07500
C932        C  0.41642611  0.69397042  0.41402049    -0.08300
C933        C  0.41770899  0.68248366  0.37726210    -0.02800
C934        C  0.41985284  0.69705099  0.34161096     0.04000
N935        N  0.42310060  0.68751950  0.30345751     0.66500
H936        H  0.41888085  0.73120244  0.31515182     0.15400
H937        H  0.41493480  0.68339536  0.44187966     0.15100
N938        N  0.41153314  0.72740634  0.45374141     0.74200
O939        O  0.40317722  0.67665528  0.27947514    -0.39200
O940        O  0.44671112  0.69409145  0.29122515    -0.39200
O941        O  0.38812586  0.71692752  0.46930657    -0.39900
O942        O  0.43228174  0.74263667  0.47459009    -0.39900
C943        C  0.47370172  0.62531706  0.01188671    -0.12200
C944        C  0.47818297  0.62337196  0.47268454     0.04800
C945        C  0.00554148  0.63288859  0.46031251    -0.07500
C946        C  0.02708816  0.64480083  0.48781826    -0.08300
C947        C  0.02235428  0.64800512  0.02569657    -0.02800
C948        C  0.49524011  0.63682176  0.03945751     0.04000
N949        N  0.48932632  0.63706232  0.08104687     0.66500
H950        H  0.45298720  0.61628163  0.02298313     0.15400
H951        H  0.04747395  0.65019229  0.47812006     0.15100
N952        N  0.01137765  0.62855435  0.42019648     0.74200
O953        O  0.49112002  0.65836105  0.09635003    -0.39200
O954        O  0.47831405  0.61500897  0.10068151    -0.39200
O955        O  0.02221778  0.64845944  0.39619171    -0.39900
O956        O  0.01063631  0.60642513  0.41133161    -0.39900
C957        C  0.98782238  0.65138874  0.26481359    -0.12200
C958        C  0.47668346  0.62373248  0.27583896     0.04800
C959        C  0.49069129  0.60977905  0.26428712    -0.07500
C960        C  0.51195673  0.62161307  0.23648247    -0.08300
C961        C  0.01963159  0.64723441  0.21983446    -0.02800
C962        C  0.00973947  0.66334066  0.23792181     0.04000
N963        N  0.02155192  0.69181517  0.22937820     0.66500
H964        H  0.98053797  0.66401284  0.27847733     0.15400
H965        H  0.52244693  0.61060311  0.22830852     0.15100
N966        N  0.48351092  0.58337091  0.27981208     0.74200
O967        O  0.01589525  0.69937406  0.19682241    -0.39200
O968        O  0.03305914  0.70894117  0.25718118    -0.39200
O969        O  0.47565964  0.56354425  0.25588639    -0.39900
O970        O  0.49168934  0.58150660  0.31432429    -0.39900
C971        C  0.13326041  0.62953624  0.20750160    -0.12200
C972        C  0.12304910  0.64587665  0.22298249     0.04800
C973        C  0.12375542  0.64992796  0.26489156    -0.07500
C974        C  0.13406431  0.63734605  0.29019460    -0.08300
C975        C  0.14418535  0.62105045  0.27462026    -0.02800
C976        C  0.14387215  0.61725039  0.23285604     0.04000
N977        N  0.15285512  0.59977653  0.21591225     0.66500
H978        H  0.13267019  0.62594974  0.17564595     0.15400
H979        H  0.13429052  0.64042396  0.32211976     0.15100
N980        N  0.11319174  0.66588358  0.28248518     0.74200
O981        O  0.13716270  0.57422164  0.21608138    -0.39200
O982        O  0.17459190  0.60993421  0.19574910    -0.39200
O983        O  0.08917158  0.65416751  0.29602217    -0.39900
O984        O  0.12923369  0.69062128  0.29103939    -0.39900
C985        C  0.11894870  0.64857310  0.48581385    -0.12200
C986        C  0.12834161  0.65210446  0.02545268     0.04800
C987        C  0.14782541  0.64504785  0.03830029    -0.07500
C988        C  0.15855547  0.63396970  0.01091804    -0.08300
C989        C  0.14804134  0.62895796  0.47135414    -0.02800
C990        C  0.12870192  0.63644742  0.45863667     0.04000
N991        N  0.11900295  0.63225409  0.41821998     0.66500
H992        H  0.10399717  0.65407010  0.47581371     0.15400
H993        H  0.17327662  0.62830541  0.02140356     0.15100
N994        N  0.15684132  0.64895947  0.07904256     0.74200
O995        O  0.09812115  0.61000783  0.40881743    -0.39200
O996        O  0.12702823  0.65258084  0.39517542    -0.39200
O997        O  0.15058953  0.62845902  0.10105642    -0.39900
O998        O  0.17475666  0.67237949  0.09073466    -0.39900
C999        C  0.13991872  0.50377767  0.04275287    -0.12200
C1000       C  0.12309068  0.97818051  0.02702731     0.04800
C1001       C  0.11700775  0.97432273  0.48664600    -0.07500
C1002       C  0.12885617  0.99700270  0.46121937    -0.08300
C1003       C  0.14708124  0.52329626  0.47674126    -0.02800
C1004       C  0.15225008  0.52635445  0.01684631     0.04000
N1005       N  0.17033338  0.55265586  0.03340012     0.66500
H1006       H  0.14456567  0.50662980  0.07451858     0.15400
H1007       H  0.12397273  0.99402371  0.42953072     0.15100
N1008       N  0.09843415  0.94812335  0.47022009     0.74200
O1009       O  0.16102518  0.56772027  0.04508257    -0.39200
O1010       O  0.19452537  0.55892288  0.04210787    -0.39200
O1011       O  0.07347897  0.94090864  0.46687883    -0.39900
O1012       O  0.10752801  0.93421424  0.45346172    -0.39900
C1013       C  0.14857702  0.98458019  0.23835368    -0.12200
C1014       C  0.12147435  0.97404917  0.22550087     0.04800
C1015       C  0.10584546  0.98500242  0.24163947    -0.07500
C1016       C  0.11571261  0.50411828  0.27330384    -0.08300
C1017       C  0.14371684  0.51664217  0.28240467    -0.02800
C1018       C  0.15946967  0.50646540  0.26406642     0.04000
N1019       N  0.18781170  0.51775350  0.27308314     0.66500
H1020       H  0.16073830  0.97613991  0.22667126     0.15400
H1021       H  0.10312730  0.51144033  0.28693054     0.15100
N1022       N  0.07778560  0.97412600  0.23102061     0.74200
O1023       O  0.19499283  0.50936561  0.30335536    -0.39200
O1024       O  0.20548039  0.53281117  0.24773582    -0.39200
O1025       O  0.05949363  0.95531441  0.25194208    -0.39900
O1026       O  0.07120314  0.98616605  0.20507251    -0.39900
C1027       C  0.00124688  0.88267168  0.22149626    -0.12200
C1028       C  0.01789510  0.87075679  0.21798342     0.04800
C1029       C  0.01188241  0.84754577  0.24161091    -0.07500
C1030       C  0.48545478  0.83382599  0.26525258    -0.08300
C1031       C  0.47171125  0.84821035  0.27436069    -0.02800
C1032       C  0.48031081  0.87379197  0.25588854     0.04000
N1033       N  0.46658877  0.88894913  0.26308525     0.66500
H1034       H  0.00549160  0.90054416  0.20390483     0.15400
H1035       H  0.47896751  0.81405982  0.27885132     0.15100
N1036       N  0.02783994  0.83429699  0.23879522     0.74200
O1037       O  0.47630360  0.90821729  0.28821449    -0.39200
O1038       O  0.44783957  0.88630648  0.23963727    -0.39200
O1039       O  0.04386290  0.83668856  0.26695931    -0.39900
O1040       O  0.02288315  0.81702428  0.21140389    -0.39900
C1041       C  0.02420119  0.87161379  0.48238003    -0.12200
C1042       C  0.01996808  0.87300260  0.02369710     0.04800
C1043       C  0.49194471  0.86469271  0.03956355    -0.07500
C1044       C  0.47026743  0.85360367  0.01212980    -0.08300
C1045       C  0.47338670  0.84925463  0.47040709    -0.02800
C1046       C  0.00268264  0.86148654  0.45465466     0.04000
N1047       N  0.00847782  0.86102937  0.41306247     0.66500
H1048       H  0.04483179  0.87921689  0.47162511     0.15400
H1049       H  0.44993387  0.84791827  0.02245018     0.15100
N1050       N  0.48647558  0.86763859  0.08051944     0.74200
O1051       O  0.01409633  0.88154969  0.39141569    -0.39200
O1052       O  0.50746736  0.83214557  0.40784050    -0.39200
O1053       O  0.48104069  0.88605466  0.09021993    -0.39900
O1054       O  0.48338875  0.84963993  0.10581400    -0.39900
C1055       C  0.07816988  0.77634411  0.08681156    -0.12200
C1056       C  0.08024377  0.76535324  0.12371434     0.04800
C1057       C  0.07918996  0.77835285  0.15946310    -0.07500
C1058       C  0.07850101  0.80276187  0.15746419    -0.08300
C1059       C  0.07931160  0.81519839  0.12061657    -0.02800
C1060       C  0.07767345  0.80093874  0.08493916     0.04000
N1061       N  0.07624997  0.81139568  0.04647569     0.66500
H1062       H  0.07815772  0.76650861  0.05893132     0.15400
H1063       H  0.07901735  0.81281941  0.18537309     0.15100
N1064       N  0.07974002  0.76785535  0.19830948     0.74200
O1065       O  0.09729439  0.82291734  0.02482032    -0.39200
O1066       O  0.05326605  0.80493406  0.03150968    -0.39200
O1067       O  0.10245704  0.77378939  0.21379792    -0.39900
O1068       O  0.05934302  0.76027674  0.22088273    -0.39900
C1069       C  0.37421190  0.98213439  0.24465844    -0.12200
C1070       C  0.35030314  0.97653363  0.22407351     0.04800
C1071       C  0.33801690  0.99254534  0.23180778    -0.07500
C1072       C  0.35003979  0.01408368  0.25937069    -0.08300
C1073       C  0.37281386  0.51890148  0.28156046    -0.02800
C1074       C  0.38445046  0.50206086  0.27468179     0.04000
N1075       N  0.40856293  0.50632802  0.29523954     0.66500
H1076       H  0.38197847  0.46847648  0.24115893     0.15400
H1077       H  0.34068189  0.02661129  0.26432557     0.15100
N1078       N  0.31399368  0.98788816  0.21074762     0.74200
O1079       O  0.40677839  0.49833014  0.33104398    -0.39200
O1080       O  0.42952982  0.51151503  0.27523353    -0.39200
O1081       O  0.29120154  0.97623917  0.22825280    -0.39900
O1082       O  0.31606493  0.99860821  0.17675111    -0.39900
C1083       C  0.38036994  0.99173332  0.02375993    -0.12200
C1084       C  0.35193222  0.97677157  0.02864957     0.04800
C1085       C  0.33545029  0.98453181  0.00664708    -0.07500
C1086       C  0.34634673  0.51011465  0.48510704    -0.08300
C1087       C  0.37430558  0.52273098  0.47624862    -0.02800
C1088       C  0.39025423  0.51269894  0.49442263     0.04000
N1089       N  0.41894349  0.52524428  0.48726312     0.66500
H1090       H  0.39334722  0.98601277  0.04029956     0.15400
H1091       H  0.33380104  0.51750937  0.47134930     0.15100
N1092       N  0.30647228  0.97013681  0.01091831     0.74200
O1093       O  0.43739193  0.03819845  0.49501288    -0.39200
O1094       O  0.42822158  0.51289689  0.46672307    -0.39200
O1095       O  0.29610189  0.48192674  0.03925653    -0.39900
O1096       O  0.29191772  0.95227744  0.98538809    -0.39900
C1097       C  0.33236650  0.84646093  0.01136129    -0.12200
C1098       C  0.34923675  0.87266809  0.02706380     0.04800
C1099       C  0.37713115  0.88685381  0.01605879    -0.07500
C1100       C  0.38717503  0.87458034  0.48951480    -0.08300
C1101       C  0.37017631  0.84823051  0.47433164    -0.02800
C1102       C  0.34265310  0.83393640  0.48665207     0.04000
N1103       N  0.32488921  0.80651682  0.47421332     0.66500
H1104       H  0.31101035  0.83513280  0.01962058     0.15400
H1105       H  0.40850846  0.88581609  0.48107767     0.15100
N1106       N  0.39542869  0.91370372  0.03072661     0.74200
O1107       O  0.31912875  0.78736681  0.49876405    -0.39200
O1108       O  0.31097914  0.80195755  0.44256826    -0.39200
O1109       O  0.41342767  0.91713418  0.05622552    -0.39900
O1110       O  0.39627591  0.93420585  0.01393381    -0.39900
C1111       C  0.34444298  0.87295951  0.26515557    -0.12200
C1112       C  0.34835347  0.87204858  0.22370220     0.04800
C1113       C  0.36278511  0.85911268  0.20993543    -0.07500
C1114       C  0.37301888  0.84761865  0.23744015    -0.08300
C1115       C  0.36960291  0.84904112  0.27886797    -0.02800
C1116       C  0.35508496  0.86183277  0.29269837     0.04000
N1117       N  0.35057080  0.86329210  0.33454163     0.66500
H1118       H  0.33353941  0.88288233  0.27638352     0.15400
H1119       H  0.38424977  0.83801810  0.22626980     0.15100
N1120       N  0.36695154  0.85713089  0.16810663     0.74200
O1121       O  0.36490087  0.88531344  0.35335677    -0.39200
O1122       O  0.32982076  0.84409795  0.35111373    -0.39200
O1123       O  0.39005474  0.87253890  0.15284413    -0.39900
O1124       O  0.34914472  0.83723550  0.14813817    -0.39900
C1125       C  0.22061773  0.91967628  0.15683578    -0.12200
C1126       C  0.23173241  0.91738855  0.12032609     0.04800
C1127       C  0.21843779  0.91744027  0.08427591    -0.07500
C1128       C  0.19385323  0.91790662  0.08565981    -0.08300
C1129       C  0.18144489  0.91755499  0.12231897    -0.02800
C1130       C  0.19577041  0.91956733  0.15822763     0.04000
N1131       N  0.18490841  0.92021521  0.19660967     0.66500
H1132       H  0.23059298  0.92027871  0.18493357     0.15400
H1133       H  0.18351608  0.91656814  0.05762375     0.15100
N1134       N  0.22821366  0.91478175  0.04600640     0.74200
O1135       O  0.17252026  0.89849218  0.21684400    -0.39200
O1136       O  0.19221425  0.94290519  0.21327552    -0.39200
O1137       O  0.22251449  0.89136332  0.03369842    -0.39900
O1138       O  0.23669268  0.93431173  0.02136864    -0.39900
C1139       C  0.22234565  0.80038902  0.09796329    -0.12200
C1140       C  0.23019423  0.81723277  0.13206460     0.04800
C1141       C  0.21381306  0.80763488  0.16689033    -0.07500
C1142       C  0.18997219  0.78210011  0.16663502    -0.08300
C1143       C  0.18140883  0.76592857  0.13190997    -0.02800
C1144       C  0.19834515  0.77483213  0.09765094     0.04000
N1145       N  0.19136278  0.75822629  0.06231431     0.66500
H1146       H  0.23484291  0.80719662  0.07122628     0.15400
H1147       H  0.17698981  0.77591810  0.19289820     0.15100
N1148       N  0.21937797  0.82471372  0.20131702     0.74200
O1149       O  0.19235816  0.76853375  0.02829712    -0.39200
O1150       O  0.18547262  0.73352943  0.06482742    -0.39200
O1151       O  0.21230922  0.84275420  0.20141486    -0.39900
O1152       O  0.22713107  0.81889443  0.23354277    -0.39900
Fe1153     Fe  0.35115835  0.92498812  0.62629340     1.65800
Fe1154     Fe  0.29123417  0.89841565  0.67710102     1.73200
Fe1155     Fe  0.29069385  0.89560297  0.57475290     1.54400
O1156       O  0.31701055  0.93290241  0.54788056    -0.81600
O1157       O  0.26604126  0.85794676  0.66260071    -0.79900
O1158       O  0.35416716  0.95444047  0.58668446    -0.84100
O1159       O  0.35396097  0.90280850  0.57975981    -0.79000
O1160       O  0.26568847  0.91139022  0.58981980    -0.80800
O1161       O  0.31703148  0.88732302  0.70615105    -0.83500
C1162       C  0.33800652  0.88520574  0.55487366     0.97300
C1163       C  0.34002468  0.95355448  0.55639555     1.04700
O1164       O  0.31094122  0.90628871  0.62589056    -1.12500
O1165       O  0.31388928  0.93830761  0.69652347    -0.74900
O1166       O  0.35532184  0.95058287  0.67331230    -0.78400
O1167       O  0.31290239  0.87820618  0.55246748    -0.79100
C1168       C  0.33942013  0.95447814  0.69560455     0.96200
O1169       O  0.35168692  0.89678218  0.66517505    -0.77100
O1170       O  0.26231122  0.90766724  0.65600249    -0.82300
C1171       C  0.25443486  0.84580714  0.63028178     0.98800
C1172       C  0.25468768  0.91227555  0.62245435     1.04700
O1173       O  0.26157850  0.85729111  0.59605684    -0.77900
C1174       C  0.33816277  0.88594916  0.69682298     1.03000
Fe1175     Fe  0.06882985  0.92482793  0.62393389     1.65800
Fe1176     Fe  0.09883736  0.89380815  0.67462810     1.73200
Fe1177     Fe  0.10034700  0.89579053  0.57191294     1.54400
O1178       O  0.06240129  0.88104239  0.54628246    -0.81600
O1179       O  0.13810685  0.90510681  0.65693505    -0.79900
O1180       O  0.04299497  0.90171908  0.57813087    -0.84100
O1181       O  0.09521379  0.95420039  0.58399004    -0.79000
O1182       O  0.08878897  0.85634686  0.58902748    -0.80800
O1183       O  0.11407547  0.93201468  0.69997057    -0.83500
C1184       C  0.10969716  0.95393492  0.55512783     0.97300
C1185       C  0.04289988  0.88582826  0.55115778     1.04700
O1186       O  0.08938614  0.90487572  0.62346243    -1.12500
O1187       O  0.06086036  0.88047783  0.69986581    -0.74900
O1188       O  0.04004640  0.89803195  0.66379964    -0.78400
O1189       O  0.11301721  0.93375466  0.54745203    -0.79100
C1190       C  0.04028442  0.88318124  0.69229972     0.96200
O1191       O  0.09152000  0.95036082  0.67022476    -0.77100
O1192       O  0.08473585  0.85444390  0.65534355    -0.82300
C1193       C  0.15115803  0.91045091  0.62421252     0.98800
C1194       C  0.08317865  0.84322059  0.62176380     1.04700
O1195       O  0.13994295  0.90938372  0.59068805    -0.77900
C1196       C  0.10807795  0.95084807  0.69647701     1.03000
Fe1197     Fe  0.07356141  0.64774421  0.62502617     1.65800
Fe1198     Fe  0.10298663  0.70853040  0.57588260     1.73200
Fe1199     Fe  0.10089774  0.70683057  0.67800419     1.54400
O1200       O  0.06096729  0.68491667  0.69681290    -0.81600
O1201       O  0.14027622  0.73824066  0.59838303    -0.79900
O1202       O  0.04845299  0.64353054  0.67287297    -0.84100
O1203       O  0.10178204  0.64632348  0.66280348    -0.79000
O1204       O  0.09253522  0.73647202  0.65768517    -0.80800
O1205       O  0.12210319  0.68819102  0.55381230    -0.83500
C1206       C  0.11157124  0.65864101  0.69570593     0.97300
C1207       C  0.04449085  0.65942666  0.69530728     1.04700
O1208       O  0.09262221  0.68773513  0.62624734    -1.12500
O1209       O  0.06717162  0.68160016  0.54671128    -0.74900
O1210       O  0.04363743  0.64602664  0.58737436    -0.78400
O1211       O  0.11035701  0.67969762  0.70611210    -0.79100
C1212       C  0.04563688  0.65964558  0.55595711     0.96200
O1213       O  0.09591726  0.64586515  0.57694625    -0.77100
O1214       O  0.08474658  0.73096930  0.59223430    -0.82300
C1215       C  0.15294643  0.74355161  0.63166775     0.98800
C1216       C  0.08514901  0.74246447  0.62510600     1.04700
O1217       O  0.14164048  0.73102139  0.66389049    -0.77900
C1218       C  0.11468494  0.66295328  0.55423277     1.03000
Fe1219     Fe  0.42272516  0.85019142  0.87528911     1.65800
Fe1220     Fe  0.39385666  0.79036544  0.82480037     1.73200
Fe1221     Fe  0.39277607  0.79056837  0.92655143     1.54400
O1222       O  0.42895621  0.81850394  0.95478292    -0.81600
O1223       O  0.35328814  0.76715661  0.84004200    -0.79900
O1224       O  0.45347051  0.85149776  0.91067108    -0.84100
O1225       O  0.40288541  0.85344067  0.92533771    -0.79000
O1226       O  0.41064584  0.76739623  0.91177321    -0.80800
O1227       O  0.38462623  0.81787124  0.79648327    -0.83500
C1228       C  0.38267864  0.83701598  0.94653032     0.97300
C1229       C  0.45113677  0.83930934  0.94376488     1.04700
O1230       O  0.40311015  0.81026025  0.87553437    -1.12500
O1231       O  0.43361018  0.81150720  0.80485690    -0.74900
O1232       O  0.44557168  0.85358655  0.82490158    -0.78400
O1233       O  0.37343797  0.81141761  0.94576552    -0.79100
C1234       C  0.44912092  0.83718204  0.80312163     0.96200
O1235       O  0.39318244  0.85122014  0.83996101    -0.77100
O1236       O  0.40162070  0.76026115  0.84650314    -0.82300
C1237       C  0.34238974  0.75455703  0.87236757     0.98800
C1238       C  0.40898723  0.75459700  0.87961384     1.04700
O1239       O  0.35548154  0.76022685  0.90521057    -0.77900
C1240       C  0.38303693  0.83873999  0.80723238     1.03000
Fe1241     Fe  0.42686831  0.57236172  0.87475007     1.65800
Fe1242     Fe  0.39618219  0.60172105  0.92592376     1.73200
Fe1243     Fe  0.39528266  0.60147507  0.82412977     1.54400
O1244       O  0.43448689  0.61985030  0.80173748    -0.81600
O1245       O  0.35810801  0.59382781  0.90622979    -0.79900
O1246       O  0.44989584  0.59293094  0.82502638    -0.84100
O1247       O  0.39863806  0.54191280  0.83860632    -0.79000
O1248       O  0.40328166  0.63959503  0.84443508    -0.80800
O1249       O  0.37830063  0.56211142  0.94677025    -0.83500
C1250       C  0.38668043  0.54317334  0.80709691     0.97300
C1251       C  0.45173994  0.61163684  0.80175224     1.04700
O1252       O  0.40610015  0.59187098  0.87485735    -1.12500
O1253       O  0.43288457  0.61115333  0.95325097    -0.74900
O1254       O  0.45704639  0.60131812  0.91062535    -0.78400
O1255       O  0.38563289  0.56447775  0.79722658    -0.79100
C1256       C  0.45493629  0.61193655  0.94294509     0.96200
O1257       O  0.40692062  0.54862248  0.92461921    -0.77100
O1258       O  0.41290614  0.64226454  0.90959215    -0.82300
C1259       C  0.34447231  0.58621606  0.87382390     0.98800
C1260       C  0.41100656  0.65300108  0.87705028     1.04700
O1261       O  0.35497152  0.58434010  0.84124264    -0.77900
C1262       C  0.38752683  0.54565353  0.94721924     1.03000
Fe1263     Fe  0.14553940  0.57317605  0.87477465     1.65800
Fe1264     Fe  0.20626878  0.60313131  0.92479231     1.73200
Fe1265     Fe  0.20500514  0.59974871  0.82222761     1.54400
O1266       O  0.18265868  0.55975632  0.80337307    -0.81600
O1267       O  0.23482379  0.64052295  0.90178977    -0.79900
O1268       O  0.14167378  0.54625032  0.82951120    -0.84100
O1269       O  0.14397521  0.59969641  0.83386212    -0.79000
O1270       O  0.23457473  0.59143500  0.84345311    -0.80800
O1271       O  0.18483195  0.62130504  0.94680030    -0.83500
C1272       C  0.15708095  0.61015259  0.80183835     0.97300
C1273       C  0.15734159  0.54277668  0.80585244     1.04700
O1274       O  0.18562055  0.59199110  0.87401680    -1.12500
O1275       O  0.18028909  0.56707528  0.95422412    -0.74900
O1276       O  0.14301423  0.54482355  0.91636234    -0.78400
O1277       O  0.17867597  0.60967808  0.79280489    -0.79100
C1278       C  0.15717762  0.54634104  0.94697492     0.96200
O1279       O  0.14353673  0.59761170  0.91949314    -0.77100
O1280       O  0.23054650  0.58652723  0.90953842    -0.82300
C1281       C  0.24112281  0.65249190  0.86793499     0.98800
C1282       C  0.24185747  0.58622489  0.87685742     1.04700
O1283       O  0.22948224  0.64053087  0.83559999    -0.77900
C1284       C  0.16011450  0.61555871  0.94369910     1.03000
C1285       C  0.27669726  0.57946521  0.84037591    -0.12200
C1286       C  0.26548278  0.58116395  0.87719787     0.04800
C1287       C  0.27892569  0.58087219  0.91295512    -0.07500
C1288       C  0.30357035  0.58050989  0.91107629    -0.08300
C1289       C  0.31578757  0.58091101  0.87416952    -0.02800
C1290       C  0.30149972  0.57946540  0.83851022     0.04000
N1291       N  0.31272474  0.58000820  0.79994264     0.66500
H1292       H  0.26681365  0.57936825  0.81242174     0.15400
H1293       H  0.31389020  0.58137025  0.93894522     0.15100
N1294       N  0.26905484  0.58294444  0.95145834     0.74200
O1295       O  0.30857605  0.55803421  0.78378770    -0.39200
O1296       O  0.32533623  0.60223984  0.78093351    -0.39200
O1297       O  0.25732795  0.56205954  0.97353755    -0.39900
O1298       O  0.27649635  0.60623143  0.96615965    -0.39900
C1299       C  0.30369485  0.71801894  0.83391985    -0.12200
C1300       C  0.31404276  0.73110089  0.87093892     0.04800
C1301       C  0.29783423  0.71988085  0.90567131    -0.07500
C1302       C  0.27306207  0.69540732  0.90295913    -0.08300
C1303       C  0.26402308  0.68108762  0.86671766    -0.02800
C1304       C  0.27910144  0.69322726  0.83151375     0.04000
N1305       N  0.27091017  0.67983803  0.79353602     0.66500
H1306       H  0.31549591  0.72618797  0.80676111     0.15400
H1307       H  0.26146314  0.68685916  0.93019002     0.15100
N1308       N  0.30587045  0.73257028  0.94419476     0.74200
O1309       O  0.25790601  0.68638258  0.76927728    -0.39200
O1310       O  0.28042556  0.66496553  0.78177635    -0.39200
O1311       O  0.28947113  0.73763369  0.96286852    -0.39900
O1312       O  0.32366311  0.73016305  0.96400160    -0.39900
C1313       C  0.41872713  0.72133010  0.84413140    -0.12200
C1314       C  0.41448619  0.73127582  0.88048691     0.04800
C1315       C  0.41295123  0.71700315  0.91623198    -0.07500
C1316       C  0.41388279  0.69261074  0.91461564    -0.08300
C1317       C  0.41598705  0.68158276  0.87789668    -0.02800
C1318       C  0.41952238  0.69686407  0.84252147     0.04000
N1319       N  0.42342515  0.68764250  0.80451965     0.66500
H1320       H  0.42061153  0.73216074  0.81638279     0.15400
H1321       H  0.41115903  0.68138558  0.94223137     0.15100
N1322       N  0.40810176  0.72559365  0.95411539     0.74200
O1323       O  0.40369415  0.67627979  0.78028834    -0.39200
O1324       O  0.44730130  0.69511131  0.79254836    -0.39200
O1325       O  0.38391072  0.71686698  0.96574977    -0.39900
O1326       O  0.42756919  0.73786249  0.97853509    -0.39900
C1327       C  0.47349046  0.62585812  0.51349699    -0.12200
C1328       C  0.47859338  0.62503563  0.97060705     0.04800
C1329       C  0.00527581  0.63571190  0.95724497    -0.07500
C1330       C  0.02704827  0.64775688  0.98446432    -0.08300
C1331       C  0.02251906  0.64892961  0.52777999    -0.02800
C1332       C  0.49503635  0.63717717  0.54108499     0.04000
N1333       N  0.48947367  0.63972627  0.58215649     0.66500
H1334       H  0.45295465  0.61882772  0.52420219     0.15400
H1335       H  0.04773221  0.65624093  0.97342189     0.15100
N1336       N  0.01113718  0.63541929  0.91563957     0.74200
O1337       O  0.49313718  0.66234975  0.59504835    -0.39200
O1338       O  0.47721900  0.61864936  0.60375192    -0.39200
O1339       O  0.01808109  0.65648246  0.89458361    -0.39900
O1340       O  0.01421404  0.61624855  0.90196347    -0.39900
C1341       C  0.98519729  0.64927827  0.76150837    -0.12200
C1342       C  0.47482955  0.62404692  0.77337818     0.04800
C1343       C  0.48328688  0.60781922  0.75254491    -0.07500
C1344       C  0.50568574  0.61998206  0.72679285    -0.08300
C1345       C  0.02033331  0.64724704  0.72187119    -0.02800
C1346       C  0.00698172  0.66157613  0.73440218     0.04000
N1347       N  0.01450720  0.68812961  0.71900699     0.66500
H1348       H  0.97505139  0.66042633  0.77067292     0.15400
H1349       H  0.51178631  0.60692277  0.71150379     0.15100
N1350       N  0.46858493  0.57873863  0.75588764     0.74200
O1351       O  0.01397223  0.69161217  0.68169010    -0.39200
O1352       O  0.01664270  0.70655846  0.74263368    -0.39200
O1353       O  0.44885092  0.56501752  0.73245682    -0.39900
O1354       O  0.47846703  0.56682108  0.77630296    -0.39900
C1355       C  0.13838417  0.63504027  0.70702584    -0.12200
C1356       C  0.12452350  0.64777488  0.72325703     0.04800
C1357       C  0.12228665  0.64877021  0.76524724    -0.07500
C1358       C  0.13311204  0.63648951  0.79029495    -0.08300
C1359       C  0.14668417  0.62346658  0.77414263    -0.02800
C1360       C  0.14950630  0.62303013  0.73219088     0.04000
N1361       N  0.16219168  0.60912503  0.71422545     0.66500
H1362       H  0.14016789  0.63411893  0.67619297     0.15400
H1363       H  0.13081411  0.63698557  0.82152433     0.15100
N1364       N  0.10792819  0.66098270  0.78316600     0.74200
O1365       O  0.14875194  0.58351858  0.70986810    -0.39200
O1366       O  0.18494765  0.62267996  0.69703371    -0.39200
O1367       O  0.08302727  0.64629887  0.79186555    -0.39900
O1368       O  0.12108520  0.68506562  0.79651325    -0.39900
C1369       C  0.12019220  0.64832150  0.98516969    -0.12200
C1370       C  0.12749819  0.65269368  0.52592627     0.04800
C1371       C  0.14659293  0.64513470  0.53875871    -0.07500
C1372       C  0.15697142  0.63373381  0.51142688    -0.08300
C1373       C  0.14985941  0.62938481  0.97071137    -0.02800
C1374       C  0.13055110  0.63686151  0.95787449     0.04000
N1375       N  0.12180937  0.63370031  0.91703435     0.66500
H1376       H  0.10523733  0.65377235  0.97501524     0.15400
H1377       H  0.17149434  0.62781239  0.52194282     0.15100
N1378       N  0.15505454  0.64820879  0.57970212     0.74200
O1379       O  0.10065188  0.61209579  0.90633941    -0.39200
O1380       O  0.13121319  0.65447655  0.89465659    -0.39200
O1381       O  0.14773217  0.62722639  0.60109428    -0.39900
O1382       O  0.17347820  0.67114530  0.59220087    -0.39900
C1383       C  0.13957679  0.50372085  0.54392053    -0.12200
C1384       C  0.12250093  0.97765778  0.52807967     0.04800
C1385       C  0.11492006  0.97532746  0.98661122    -0.07500
C1386       C  0.12693212  0.99787735  0.96094638    -0.08300
C1387       C  0.14600841  0.52295748  0.97534867    -0.02800
C1388       C  0.15198007  0.52658239  0.51853812     0.04000
N1389       N  0.16851495  0.55301115  0.53584024     0.66500
H1390       H  0.14295467  0.50645207  0.57598892     0.15400
H1391       H  0.12007772  0.99531038  0.93006363     0.15100
N1392       N  0.09356144  0.94985499  0.97169309     0.74200
O1393       O  0.15816646  0.56785997  0.54353191    -0.39200
O1394       O  0.19189268  0.55955843  0.54931039    -0.39200
O1395       O  0.06907500  0.94447780  0.97402463    -0.39900
O1396       O  0.09936199  0.93453293  0.95145543    -0.39900
C1397       C  0.14794975  0.98501501  0.73609422    -0.12200
C1398       C  0.12053162  0.97410451  0.72467972     0.04800
C1399       C  0.10512756  0.98515405  0.74127224    -0.07500
C1400       C  0.11723165  0.50685031  0.76904791    -0.08300
C1401       C  0.14505201  0.51860257  0.77886658    -0.02800
C1402       C  0.16047006  0.50790302  0.76089921     0.04000
N1403       N  0.18892654  0.51925349  0.76911075     0.66500
H1404       H  0.16000086  0.97665989  0.72369221     0.15400
H1405       H  0.10501746  0.51487583  0.78188526     0.15100
N1406       N  0.07703762  0.97448747  0.73101439     0.74200
O1407       O  0.19656072  0.50965056  0.79735270    -0.39200
O1408       O  0.20622909  0.53536856  0.74417009    -0.39200
O1409       O  0.05872242  0.95711817  0.75359517    -0.39900
O1410       O  0.07061933  0.98567207  0.70349106    -0.39900
C1411       C  0.99940329  0.88153574  0.72292794    -0.12200
C1412       C  0.01599865  0.86959703  0.71878911     0.04800
C1413       C  0.00985404  0.84607947  0.74179458    -0.07500
C1414       C  0.48819841  0.83644930  0.76989961    -0.08300
C1415       C  0.47189487  0.84862379  0.77427368    -0.02800
C1416       C  0.47753774  0.87169857  0.75084539     0.04000
N1417       N  0.46099807  0.88432506  0.75354967     0.66500
H1418       H  0.00369325  0.89958868  0.70577687     0.15400
H1419       H  0.48402966  0.81868609  0.78771813     0.15100
N1420       N  0.02553527  0.83258578  0.73803751     0.74200
O1421       O  0.46870146  0.90523704  0.77519919    -0.39200
O1422       O  0.44156233  0.87764536  0.72917593    -0.39200
O1423       O  0.04053741  0.83329393  0.76668110    -0.39900
O1424       O  0.02118672  0.81661558  0.70898091    -0.39900
C1425       C  0.02388669  0.86927911  0.98309500    -0.12200
C1426       C  0.01944604  0.87298948  0.52340411     0.04800
C1427       C  0.49102490  0.86493870  0.53775918    -0.07500
C1428       C  0.46920297  0.85321959  0.51067719    -0.08300
C1429       C  0.47461356  0.85027747  0.97162526    -0.02800
C1430       C  0.00196540  0.85851706  0.95598333     0.04000
N1431       N  0.00685051  0.85525784  0.91488402     0.66500
H1432       H  0.04418447  0.87541271  0.97212572     0.15400
H1433       H  0.44889144  0.84758268  0.52105329     0.15100
N1434       N  0.48571010  0.86853335  0.57852297     0.74200
O1435       O  0.01383519  0.87488642  0.89074678    -0.39200
O1436       O  0.50744239  0.83302893  0.90804128    -0.39200
O1437       O  0.47902897  0.88622634  0.58714489    -0.39900
O1438       O  0.48384177  0.85153379  0.60478447    -0.39900
C1439       C  0.07653299  0.77586585  0.58791757    -0.12200
C1440       C  0.07852681  0.76494036  0.62492520     0.04800
C1441       C  0.07647232  0.77742810  0.66060976    -0.07500
C1442       C  0.07533637  0.80159780  0.65844759    -0.08300
C1443       C  0.07668917  0.81423681  0.62156944    -0.02800
C1444       C  0.07552366  0.80017065  0.58591776     0.04000
N1445       N  0.07420207  0.81061266  0.54738400     0.66500
H1446       H  0.07705631  0.76626771  0.56007809     0.15400
H1447       H  0.07526658  0.81142396  0.68630468     0.15100
N1448       N  0.07660095  0.76678178  0.69954750     0.74200
O1449       O  0.09511227  0.82151047  0.52539505    -0.39200
O1450       O  0.05130221  0.80486586  0.53281899    -0.39200
O1451       O  0.09912736  0.77230670  0.71531067    -0.39900
O1452       O  0.05621980  0.75969800  0.72198767    -0.39900
C1453       C  0.37381000  0.98190124  0.74677510    -0.12200
C1454       C  0.35155722  0.97794795  0.72320962     0.04800
C1455       C  0.34074990  0.99554691  0.72792919    -0.07500
C1456       C  0.35231392  0.01674674  0.75614086    -0.08300
C1457       C  0.37360289  0.51909118  0.78035315    -0.02800
C1458       C  0.38628434  0.50351010  0.77090506     0.04000
N1459       N  0.41152379  0.50877706  0.78899283     0.66500
H1460       H  0.38423260  0.47088133  0.73538942     0.15400
H1461       H  0.34408126  0.03043013  0.75889445     0.15100
N1462       N  0.31898179  0.99297166  0.70291136     0.74200
O1463       O  0.41197728  0.50362820  0.82573265    -0.39200
O1464       O  0.43068024  0.51110050  0.76688851    -0.39200
O1465       O  0.29582159  0.98553454  0.71784324    -0.39900
O1466       O  0.32384578  0.00154155  0.66723466    -0.39900
C1467       C  0.37864942  0.98758376  0.51593487    -0.12200
C1468       C  0.35168573  0.97717800  0.52886099     0.04800
C1469       C  0.33637656  0.98888950  0.51413257    -0.07500
C1470       C  0.34710777  0.50845256  0.98208386    -0.08300
C1471       C  0.37539080  0.52229559  0.97546241    -0.02800
C1472       C  0.39167061  0.51370500  0.99625340     0.04000
N1473       N  0.42067605  0.52776552  0.99165816     0.66500
H1474       H  0.39055099  0.97856316  0.52670080     0.15400
H1475       H  0.33432104  0.51477483  0.96633810     0.15100
N1476       N  0.30879522  0.97879120  0.52633188     0.74200
O1477       O  0.43469367  0.05183851  0.01273034    -0.39200
O1478       O  0.43209557  0.51580925  0.97552033    -0.39200
O1479       O  0.29726899  0.48337522  0.54766848    -0.39900
O1480       O  0.28981247  0.96663114  0.50117095    -0.39900
C1481       C  0.33245225  0.84635492  0.51242387    -0.12200
C1482       C  0.34943285  0.87272822  0.52745600     0.04800
C1483       C  0.37726170  0.88673603  0.51611879    -0.07500
C1484       C  0.38730029  0.87486013  0.98965058    -0.08300
C1485       C  0.37042599  0.84868560  0.97384463    -0.02800
C1486       C  0.34270391  0.83436948  0.98520683     0.04000
N1487       N  0.32471285  0.80747253  0.97079293     0.66500
H1488       H  0.31121592  0.83504406  0.52131131     0.15400
H1489       H  0.40872842  0.88612867  0.98173908     0.15100
N1490       N  0.39573093  0.91356409  0.53065317     0.74200
O1491       O  0.31419295  0.78798303  0.99549509    -0.39200
O1492       O  0.31516708  0.80417235  0.93569737    -0.39200
O1493       O  0.41311808  0.91674404  0.55708616    -0.39900
O1494       O  0.39786373  0.93413552  0.51229130    -0.39900
C1495       C  0.34453012  0.87327640  0.76614813    -0.12200
C1496       C  0.34788099  0.87193908  0.72462230     0.04800
C1497       C  0.36173440  0.85846948  0.71064472    -0.07500
C1498       C  0.37244251  0.84733952  0.73805205    -0.08300
C1499       C  0.36986196  0.84943211  0.77958175    -0.02800
C1500       C  0.35549777  0.86236595  0.79357702     0.04000
N1501       N  0.35141869  0.86414762  0.83548842     0.66500
H1502       H  0.33393037  0.88347970  0.77749671     0.15400
H1503       H  0.38321210  0.83731288  0.72668913     0.15100
N1504       N  0.36457982  0.85536290  0.66868989     0.74200
O1505       O  0.36721446  0.88566180  0.85445232    -0.39200
O1506       O  0.32969845  0.84626997  0.85184119    -0.39200
O1507       O  0.38792651  0.86726575  0.65281848    -0.39900
O1508       O  0.34438334  0.83793253  0.64878142    -0.39900
C1509       C  0.21902538  0.91772139  0.65872162    -0.12200
C1510       C  0.23088758  0.91708925  0.62194121     0.04800
C1511       C  0.21796820  0.91836331  0.58611850    -0.07500
C1512       C  0.19311874  0.91832765  0.58791484    -0.08300
C1513       C  0.18007750  0.91639455  0.62460335    -0.02800
C1514       C  0.19397959  0.91722236  0.66041696     0.04000
N1515       N  0.18254953  0.91636674  0.69893027     0.66500
H1516       H  0.22858301  0.91735316  0.68676044     0.15400
H1517       H  0.18320659  0.91812273  0.55994480     0.15100
N1518       N  0.22871075  0.91819660  0.54741679     0.74200
O1519       O  0.16976726  0.89388555  0.71728710    -0.39200
O1520       O  0.18946568  0.93837163  0.71743468    -0.39200
O1521       O  0.22515780  0.89590216  0.53324426    -0.39900
O1522       O  0.23461863  0.93791152  0.52387886    -0.39900
C1523       C  0.22263799  0.80043396  0.59908561    -0.12200
C1524       C  0.23057863  0.81763034  0.63283844     0.04800
C1525       C  0.21416612  0.80837002  0.66771443    -0.07500
C1526       C  0.19009748  0.78304832  0.66768176    -0.08300
C1527       C  0.18142166  0.76662720  0.63325890    -0.02800
C1528       C  0.19848566  0.77497028  0.59913764     0.04000
N1529       N  0.19152158  0.75780383  0.56441245     0.66500
H1530       H  0.23516825  0.80687875  0.57236889     0.15400
H1531       H  0.17710066  0.77719609  0.69391254     0.15100
N1532       N  0.22004726  0.82552903  0.70210474     0.74200
O1533       O  0.19265879  0.76757719  0.52993101    -0.39200
O1534       O  0.18538412  0.73308554  0.56798768    -0.39200
O1535       O  0.21247784  0.84318463  0.70286541    -0.39900
O1536       O  0.22887304  0.82024515  0.73373435    -0.39900
Fe1537     Fe  0.84998694  0.42485120  0.12584786     1.65800
Fe1538     Fe  0.79038313  0.39778706  0.17691194     1.73200
Fe1539     Fe  0.78972060  0.39448764  0.07480228     1.54400
O1540       O  0.81612712  0.43151924  0.04717722    -0.81600
O1541       O  0.76623478  0.35703321  0.16321233    -0.79900
O1542       O  0.85195070  0.45456550  0.08794269    -0.84100
O1543       O  0.85338312  0.40403529  0.07773023    -0.79000
O1544       O  0.76479739  0.41042913  0.08945266    -0.80800
O1545       O  0.81723774  0.38802550  0.20576135    -0.83500
C1546       C  0.83734878  0.38538238  0.05415374     0.97300
C1547       C  0.83838412  0.45289888  0.05651657     1.04700
O1548       O  0.80990331  0.40567374  0.12569627    -1.12500
O1549       O  0.81231079  0.43793163  0.19546368    -0.74900
O1550       O  0.85392146  0.44929049  0.17434808    -0.78400
O1551       O  0.81189029  0.37687558  0.05348766    -0.79100
C1552       C  0.83795182  0.45352249  0.19595061     0.96200
O1553       O  0.85073270  0.39610675  0.16314355    -0.77100
O1554       O  0.76057671  0.40585916  0.15557350    -0.82300
C1555       C  0.75456351  0.34472829  0.13105354     0.98800
C1556       C  0.75334812  0.41084380  0.12192467     1.04700
O1557       O  0.76092037  0.35641923  0.09690773    -0.77900
C1558       C  0.83793012  0.38606074  0.19558927     1.03000
Fe1559     Fe  0.56858223  0.42559488  0.12538452     1.65800
Fe1560     Fe  0.59899687  0.39472891  0.17510944     1.73200
Fe1561     Fe  0.60017938  0.39707580  0.07277364     1.54400
O1562       O  0.56133302  0.37998804  0.04941162    -0.81600
O1563       O  0.63790890  0.40502602  0.15602686    -0.79900
O1564       O  0.54353385  0.40326883  0.07809364    -0.84100
O1565       O  0.59551850  0.45585705  0.08696822    -0.79000
O1566       O  0.59135627  0.35848272  0.09034305    -0.80800
O1567       O  0.61509885  0.43318963  0.19993752    -0.83500
C1568       C  0.60811944  0.45486515  0.05609617     0.97300
C1569       C  0.54241571  0.38580138  0.05299210     1.04700
O1570       O  0.58934362  0.40591754  0.12443954    -1.12500
O1571       O  0.56139349  0.38224745  0.20144465    -0.74900
O1572       O  0.53942043  0.39772002  0.16356445    -0.78400
O1573       O  0.61027670  0.43416517  0.04719058    -0.79100
C1574       C  0.54029313  0.38387667  0.19301117     0.96200
O1575       O  0.59019497  0.45012931  0.17358028    -0.77100
O1576       O  0.58384719  0.35516727  0.15594878    -0.82300
C1577       C  0.65125233  0.41204996  0.12341669     0.98800
C1578       C  0.58442264  0.34475319  0.12253812     1.04700
O1579       O  0.64039550  0.41295416  0.09041369    -0.77900
C1580       C  0.60773106  0.45111449  0.19852262     1.03000
Fe1581     Fe  0.57346046  0.14797997  0.12536962     1.65800
Fe1582     Fe  0.60339031  0.20871413  0.07552496     1.73200
Fe1583     Fe  0.60105363  0.20740498  0.17789691     1.54400
O1584       O  0.56093090  0.18615815  0.19638319    -0.81600
O1585       O  0.64090779  0.23753860  0.09823967    -0.79900
O1586       O  0.54708453  0.14483294  0.17086293    -0.84100
O1587       O  0.60004311  0.14601708  0.16562844    -0.79000
O1588       O  0.59377920  0.23754728  0.15700728    -0.80800
O1589       O  0.62149714  0.18738833  0.05316777    -0.83500
C1590       C  0.61001054  0.15865670  0.19819214     0.97300
C1591       C  0.54360001  0.16089788  0.19374575     1.04700
O1592       O  0.59268044  0.18801381  0.12615343    -1.12500
O1593       O  0.56734930  0.18263031  0.04630158    -0.74900
O1594       O  0.54476270  0.14582838  0.08502243    -0.78400
O1595       O  0.60963662  0.18026379  0.20749096    -0.79100
C1596       C  0.54631401  0.15998644  0.05450053     0.96200
O1597       O  0.59745149  0.14578341  0.07990134    -0.77100
O1598       O  0.58631663  0.23235522  0.09153055    -0.82300
C1599       C  0.65354296  0.24270744  0.13153491     0.98800
C1600       C  0.58693497  0.24397491  0.12437385     1.04700
O1601       O  0.64194453  0.23063710  0.16390312    -0.77900
C1602       C  0.61542299  0.16253155  0.05584627     1.03000
Fe1603     Fe  0.92192781  0.35032418  0.37398511     1.65800
Fe1604     Fe  0.89272082  0.29024060  0.32422563     1.73200
Fe1605     Fe  0.89222814  0.29088630  0.42599149     1.54400
O1606       O  0.92875925  0.31867985  0.45325152    -0.81600
O1607       O  0.85226132  0.26735114  0.34011674    -0.79900
O1608       O  0.95282673  0.35181407  0.40907169    -0.84100
O1609       O  0.90231879  0.35397750  0.42421413    -0.79000
O1610       O  0.90971757  0.26738796  0.41100439    -0.80800
O1611       O  0.88351482  0.31760724  0.29577544    -0.83500
C1612       C  0.88242573  0.33769259  0.44608140     0.97300
C1613       C  0.95079977  0.33953590  0.44196800     1.04700
O1614       O  0.90228587  0.31038130  0.37475784    -1.12500
O1615       O  0.93232977  0.31111073  0.30367892    -0.74900
O1616       O  0.94455240  0.35334525  0.32324852    -0.78400
O1617       O  0.87346270  0.31213766  0.44578851    -0.79100
C1618       C  0.94791702  0.33675595  0.30154574     0.96200
O1619       O  0.89220666  0.35115222  0.33895029    -0.77100
O1620       O  0.90057250  0.26026932  0.34584521    -0.82300
C1621       C  0.84131980  0.25509574  0.37263870     0.98800
C1622       C  0.90823477  0.25475031  0.37877332     1.04700
O1623       O  0.85449846  0.26071534  0.40542057    -0.77900
C1624       C  0.88201235  0.33852676  0.30635426     1.03000
Fe1625     Fe  0.92587691  0.07241097  0.37671508     1.65800
Fe1626     Fe  0.89578639  0.10285019  0.42706362     1.73200
Fe1627     Fe  0.89456561  0.10135991  0.32516053     1.54400
O1628       O  0.93364617  0.11890858  0.30235759    -0.81600
O1629       O  0.85786352  0.09548620  0.40718547    -0.79900
O1630       O  0.94934690  0.09272192  0.32752145    -0.84100
O1631       O  0.89786154  0.04182069  0.34033430    -0.79000
O1632       O  0.90315492  0.13982800  0.34452308    -0.80800
O1633       O  0.87761692  0.06344014  0.44892073    -0.83500
C1634       C  0.88549904  0.04274676  0.30905939     0.97300
C1635       C  0.95108395  0.11092061  0.30336680     1.04700
O1636       O  0.90537214  0.09219092  0.37624624    -1.12500
O1637       O  0.93231016  0.11204317  0.45485850    -0.74900
O1638       O  0.95598176  0.10116152  0.41293676    -0.78400
O1639       O  0.88423973  0.06393347  0.29919239    -0.79100
C1640       C  0.95410368  0.11214346  0.44502157     0.96200
O1641       O  0.90541287  0.04910971  0.42605948    -0.77100
O1642       O  0.91299183  0.14324290  0.40965352    -0.82300
C1643       C  0.84424922  0.08790534  0.37475620     0.98800
C1644       C  0.91106160  0.15363535  0.37677635     1.04700
O1645       O  0.85440684  0.08505218  0.34247661    -0.77900
C1646       C  0.88647527  0.04665504  0.44912037     1.03000
Fe1647     Fe  0.64456521  0.07391727  0.37822562     1.65800
Fe1648     Fe  0.70589119  0.10424186  0.42700519     1.73200
Fe1649     Fe  0.70347418  0.10076188  0.32459203     1.54400
O1650       O  0.68138120  0.06062745  0.30641672    -0.81600
O1651       O  0.73388609  0.14187957  0.40375997    -0.79900
O1652       O  0.64038993  0.04701937  0.33264277    -0.84100
O1653       O  0.64224534  0.10033343  0.33802313    -0.79000
O1654       O  0.73376955  0.09318565  0.34469931    -0.80800
O1655       O  0.68426580  0.12182437  0.45017614    -0.83500
C1656       C  0.65488630  0.11044489  0.30559541     0.97300
C1657       C  0.65610809  0.04351437  0.30913213     1.04700
O1658       O  0.68466909  0.09299255  0.37672749    -1.12500
O1659       O  0.68057875  0.06786121  0.45622015    -0.74900
O1660       O  0.64287678  0.04573865  0.41919586    -0.78400
O1661       O  0.67638618  0.10996134  0.29603212    -0.79100
C1662       C  0.65750089  0.04704126  0.44907648     0.96200
O1663       O  0.64279208  0.09816014  0.42327986    -0.77100
O1664       O  0.73047371  0.08823433  0.41074924    -0.82300
C1665       C  0.73967051  0.15367444  0.36974345     0.98800
C1666       C  0.74156089  0.08814152  0.37777449     1.04700
O1667       O  0.72757486  0.14160955  0.33768308    -0.77900
C1668       C  0.65952680  0.11599395  0.44741312     1.03000
C1669       C  0.77837702  0.08510873  0.34063108    -0.12200
C1670       C  0.76550739  0.08356883  0.37742920     0.04800
C1671       C  0.77758243  0.08054273  0.41295770    -0.07500
C1672       C  0.80236914  0.08042685  0.41112831    -0.08300
C1673       C  0.81598454  0.08366122  0.37455383    -0.02800
C1674       C  0.80337475  0.08552047  0.33891201     0.04000
N1675       N  0.81671701  0.09025518  0.30098533     0.66500
H1676       H  0.76980427  0.08753293  0.31283973     0.15400
H1677       H  0.81152746  0.07884785  0.43888818     0.15100
N1678       N  0.76583218  0.07897891  0.45144508     0.74200
O1679       O  0.80960319  0.07082281  0.27651684    -0.39200
O1680       O  0.83420961  0.11423164  0.29076284    -0.39200
O1681       O  0.75212688  0.05606610  0.46834407    -0.39900
O1682       O  0.77297910  0.10057517  0.47121463    -0.39900
C1683       C  0.80320253  0.21770363  0.33490499    -0.12200
C1684       C  0.81282417  0.23194125  0.37129497     0.04800
C1685       C  0.79579166  0.22205143  0.40551928    -0.07500
C1686       C  0.77088345  0.19762904  0.40308640    -0.08300
C1687       C  0.76262558  0.18215375  0.36775928    -0.02800
C1688       C  0.77861166  0.19293977  0.33290686     0.04000
N1689       N  0.77164458  0.17789787  0.29619640     0.66500
H1690       H  0.81572851  0.22477399  0.30821085     0.15400
H1691       H  0.75856487  0.18997035  0.42991169     0.15100
N1692       N  0.80313969  0.23599822  0.44321199     0.74200
O1693       O  0.76190828  0.18500407  0.26748816    -0.39200
O1694       O  0.77936561  0.16065775  0.29024943    -0.39200
O1695       O  0.78629496  0.24133852  0.45994954    -0.39900
O1696       O  0.82089500  0.23465327  0.46467861    -0.39900
C1697       C  0.91612442  0.22054660  0.34251321    -0.12200
C1698       C  0.91432163  0.23180130  0.37922201     0.04800
C1699       C  0.91581039  0.21915120  0.41511204    -0.07500
C1700       C  0.91671284  0.19473601  0.41354837    -0.08300
C1701       C  0.91618837  0.18229068  0.37678012    -0.02800
C1702       C  0.91716125  0.19623272  0.34095603     0.04000
N1703       N  0.91850270  0.18572166  0.30257630     0.66500
H1704       H  0.91586544  0.23018520  0.31449574     0.15400
H1705       H  0.91628527  0.18474032  0.44153909     0.15100
N1706       N  0.91463129  0.22970465  0.45350962     0.74200
O1707       O  0.89748315  0.17443084  0.28069384    -0.39200
O1708       O  0.94142981  0.19182286  0.28794814    -0.39200
O1709       O  0.89209011  0.22007477  0.47152256    -0.39900
O1710       O  0.93646404  0.24506099  0.47211398    -0.39900
C1711       C  0.97328821  0.12693143  0.01049991    -0.12200
C1712       C  0.97778003  0.12492026  0.47283564     0.04800
C1713       C  0.50516409  0.12997934  0.46154883    -0.07500
C1714       C  0.52662012  0.14192592  0.48924546    -0.08300
C1715       C  0.52300107  0.14922272  0.02655926    -0.02800
C1716       C  0.99470806  0.13813830  0.03835432     0.04000
N1717       N  0.98890243  0.14058197  0.07933946     0.66500
H1718       H  0.95271646  0.11986024  0.02106705     0.15400
H1719       H  0.54692633  0.14668458  0.48006979     0.15100
N1720       N  0.51084041  0.12389177  0.42233889     0.74200
O1721       O  0.99282674  0.16326794  0.09237466    -0.39200
O1722       O  0.97618476  0.11942108  0.10063738    -0.39200
O1723       O  0.52434779  0.14310531  0.39803628    -0.39900
O1724       O  0.50728072  0.10035642  0.41509694    -0.39900
C1725       C  0.48656851  0.15242777  0.26426850    -0.12200
C1726       C  0.97427705  0.12303959  0.27514033     0.04800
C1727       C  0.98409160  0.10701393  0.25694591    -0.07500
C1728       C  0.00585544  0.11895136  0.23002730    -0.08300
C1729       C  0.51897466  0.14899867  0.21966500    -0.02800
C1730       C  0.50859247  0.16475440  0.23753013     0.04000
N1731       N  0.52000196  0.19319922  0.22901981     0.66500
H1732       H  0.47884917  0.16472756  0.27777431     0.15400
H1733       H  0.01306958  0.10617010  0.21672635     0.15100
N1734       N  0.97154346  0.07831184  0.26428731     0.74200
O1735       O  0.51556946  0.20061867  0.19542019    -0.39200
O1736       O  0.52937919  0.21018534  0.25742065    -0.39200
O1737       O  0.95561580  0.06182241  0.23832535    -0.39900
O1738       O  0.98068665  0.06966368  0.29184755    -0.39900
C1739       C  0.63471368  0.13321422  0.21065576    -0.12200
C1740       C  0.62243126  0.14759195  0.22626387     0.04800
C1741       C  0.62130833  0.15005113  0.26827048    -0.07500
C1742       C  0.63187465  0.13769388  0.29358555    -0.08300
C1743       C  0.64406952  0.12325034  0.27787556    -0.02800
C1744       C  0.64552412  0.12113320  0.23593810     0.04000
N1745       N  0.65657408  0.10555223  0.21852676     0.66500
H1746       H  0.63567409  0.13106659  0.17861489     0.15400
H1747       H  0.63063532  0.13950085  0.32566779     0.15100
N1748       N  0.60865518  0.16412105  0.28577101     0.74200
O1749       O  0.64213231  0.07987049  0.21655655    -0.39200
O1750       O  0.67880626  0.11756639  0.19959509    -0.39200
O1751       O  0.58443348  0.15069599  0.29830800    -0.39900
O1752       O  0.62306164  0.18897975  0.29519626    -0.39900
C1753       C  0.62396807  0.15321780  0.48793419    -0.12200
C1754       C  0.62876799  0.15229312  0.02823515     0.04800
C1755       C  0.64450104  0.14087031  0.04227688    -0.07500
C1756       C  0.65546824  0.12996955  0.01496674    -0.08300
C1757       C  0.64940900  0.12959595  0.47472366    -0.02800
C1758       C  0.63401686  0.14145825  0.46069036     0.04000
N1759       N  0.62851640  0.14183348  0.41892594     0.66500
H1760       H  0.61204232  0.16214564  0.47685192     0.15400
H1761       H  0.66744842  0.12117698  0.02625507     0.15100
N1762       N  0.64947006  0.14016761  0.08415337     0.74200
O1763       O  0.60725340  0.12225115  0.40394613    -0.39200
O1764       O  0.64133811  0.16386954  0.39953591    -0.39200
O1765       O  0.63752748  0.11773411  0.10276860    -0.39900
O1766       O  0.66904603  0.16068496  0.10065336    -0.39900
C1767       C  0.63879910  0.00343545  0.04436831    -0.12200
C1768       C  0.62040117  0.47842062  0.02852652     0.04800
C1769       C  0.61337825  0.47694963  0.48783913    -0.07500
C1770       C  0.62560283  0.49975416  0.46270825    -0.08300
C1771       C  0.64676475  0.02323475  0.47663555    -0.02800
C1772       C  0.65076591  0.02609939  0.01864854     0.04000
N1773       N  0.66716456  0.05268863  0.03554140     0.66500
H1774       H  0.64266220  0.00639489  0.07632244     0.15400
H1775       H  0.61815579  0.49771127  0.43221600     0.15100
N1776       N  0.59141238  0.45192562  0.47278681     0.74200
O1777       O  0.65693916  0.06788018  0.04125008    -0.39200
O1778       O  0.69017177  0.05918317  0.05045186    -0.39200
O1779       O  0.56755849  0.44850313  0.47186615    -0.39900
O1780       O  0.59648306  0.43525172  0.45485604    -0.39900
C1781       C  0.64823527  0.48785279  0.23362579    -0.12200
C1782       C  0.61995254  0.47397524  0.22741721     0.04800
C1783       C  0.60367786  0.48174328  0.24962800    -0.07500
C1784       C  0.61645435  0.00758013  0.27142037    -0.08300
C1785       C  0.64403991  0.01916985  0.28250838    -0.02800
C1786       C  0.65968210  0.00830626  0.26586254     0.04000
N1787       N  0.68761966  0.01875316  0.27687406     0.66500
H1788       H  0.66091695  0.48184147  0.21707433     0.15400
H1789       H  0.60405276  0.01560207  0.28357988     0.15100
N1790       N  0.57461979  0.46723345  0.24570678     0.74200
O1791       O  0.69345006  0.01185889  0.30986289    -0.39200
O1792       O  0.70622274  0.03185789  0.25159824    -0.39200
O1793       O  0.56038350  0.44837492  0.27013921    -0.39900
O1794       O  0.56315523  0.47617781  0.22245478    -0.39900
C1795       C  0.49970430  0.38239322  0.22411179    -0.12200
C1796       C  0.51609642  0.37028044  0.21952771     0.04800
C1797       C  0.50972363  0.34646867  0.24183938    -0.07500
C1798       C  0.98629560  0.33509103  0.26728558    -0.08300
C1799       C  0.97059012  0.34788499  0.27238087    -0.02800
C1800       C  0.97668625  0.37120900  0.24924980     0.04000
N1801       N  0.96026045  0.38396839  0.25165875     0.66500
H1802       H  0.50422137  0.40068416  0.20742005     0.15400
H1803       H  0.98161269  0.31694777  0.28449702     0.15100
N1804       N  0.52523125  0.33284446  0.23739857     0.74200
O1805       O  0.96875455  0.40585684  0.27122990    -0.39200
O1806       O  0.94005148  0.37629090  0.22848674    -0.39200
O1807       O  0.54069291  0.33367753  0.26543554    -0.39900
O1808       O  0.52037377  0.31672102  0.20837963    -0.39900
C1809       C  0.52308194  0.37400929  0.48260570    -0.12200
C1810       C  0.51840161  0.37216886  0.02606748     0.04800
C1811       C  0.99176025  0.36480616  0.03682910    -0.07500
C1812       C  0.97003193  0.35344375  0.00955587    -0.08300
C1813       C  0.97447751  0.35044505  0.46937616    -0.02800
C1814       C  0.50124778  0.36281009  0.45546330     0.04000
N1815       N  0.50696076  0.36457478  0.41349909     0.66500
H1816       H  0.54374120  0.38441690  0.47108732     0.15400
H1817       H  0.94955663  0.34675817  0.02027793     0.15100
N1818       N  0.98621099  0.36683635  0.07807556     0.74200
O1819       O  0.51213459  0.38599554  0.39447900    -0.39200
O1820       O  0.00877115  0.33732443  0.40237089    -0.39200
O1821       O  0.98057920  0.38491145  0.08895271    -0.39900
O1822       O  0.98305326  0.34827270  0.10232586    -0.39900
C1823       C  0.57901170  0.27806029  0.08759760    -0.12200
C1824       C  0.58100375  0.26692549  0.12440009     0.04800
C1825       C  0.57929967  0.27942453  0.16030799    -0.07500
C1826       C  0.57807713  0.30353774  0.15861559    -0.08300
C1827       C  0.57887801  0.31610479  0.12195455    -0.02800
C1828       C  0.57782368  0.30229785  0.08606297     0.04000
N1829       N  0.57600288  0.31274770  0.04778389     0.66500
H1830       H  0.57939929  0.26853233  0.05961565     0.15400
H1831       H  0.57817034  0.31328181  0.18663884     0.15100
N1832       N  0.57958157  0.26865981  0.19905102     0.74200
O1833       O  0.59672695  0.32403713  0.02546440    -0.39200
O1834       O  0.55290717  0.30681872  0.03380904    -0.39200
O1835       O  0.60220147  0.27468252  0.21497186    -0.39900
O1836       O  0.55897340  0.26083312  0.22124617    -0.39900
C1837       C  0.87321013  0.48118468  0.24610361    -0.12200
C1838       C  0.85013257  0.47670325  0.22413009     0.04800
C1839       C  0.83884901  0.49373914  0.23056238    -0.07500
C1840       C  0.85083075  0.51496250  0.25863491    -0.08300
C1841       C  0.87246149  0.01854635  0.28229542    -0.02800
C1842       C  0.88409091  0.00164522  0.27570574     0.04000
N1843       N  0.90741372  0.00515043  0.29780853     0.66500
H1844       H  0.88212468  0.96844722  0.24157533     0.15400
H1845       H  0.84223732  0.52825957  0.26261157     0.15100
N1846       N  0.81623089  0.49071311  0.20721563     0.74200
O1847       O  0.90449041  0.99716068  0.33375710    -0.39200
O1848       O  0.92866064  0.00959582  0.27918456    -0.39200
O1849       O  0.79334474  0.48252494  0.22359713    -0.39900
O1850       O  0.82003127  0.49966766  0.17173780    -0.39900
C1851       C  0.87831685  0.49113716  0.02350317    -0.12200
C1852       C  0.84992791  0.47652674  0.02886400     0.04800
C1853       C  0.83348833  0.48447120  0.00712686    -0.07500
C1854       C  0.84703543  0.01175285  0.48851079    -0.08300
C1855       C  0.87457874  0.02342193  0.47748569    -0.02800
C1856       C  0.89036663  0.01252014  0.49366828     0.04000
N1857       N  0.91854374  0.02369602  0.48375094     0.66500
H1858       H  0.89125040  0.48520949  0.03972475     0.15400
H1859       H  0.83458671  0.01976923  0.47631598     0.15100
N1860       N  0.80451385  0.47018193  0.01152635     0.74200
O1861       O  0.93607011  0.54464836  0.50468095    -0.39200
O1862       O  0.92570994  0.01090649  0.46020223    -0.39200
O1863       O  0.79560545  0.98079132  0.03849083    -0.39900
O1864       O  0.78984982  0.45261243  0.98572992    -0.39900
C1865       C  0.83307566  0.34609313  0.01424375    -0.12200
C1866       C  0.84904115  0.37334177  0.02646966     0.04800
C1867       C  0.87618658  0.38858377  0.01239548    -0.07500
C1868       C  0.88489279  0.37724459  0.48306614    -0.08300
C1869       C  0.86985836  0.34938329  0.47311286    -0.02800
C1870       C  0.84320347  0.33369548  0.48877813     0.04000
N1871       N  0.82678160  0.30540989  0.47954514     0.66500
H1872       H  0.81233861  0.33397353  0.02503275     0.15400
H1873       H  0.90530357  0.38986181  0.47136315     0.15100
N1874       N  0.89326445  0.41665976  0.02302980     0.74200
O1875       O  0.82765998  0.28792607  0.50227389    -0.39200
O1876       O  0.80747964  0.29799481  0.45471201    -0.39200
O1877       O  0.91327519  0.42338460  0.04630283    -0.39900
O1878       O  0.89098565  0.43494965  0.00439383    -0.39900
C1879       C  0.84341183  0.37260354  0.26476182    -0.12200
C1880       C  0.84788183  0.37227154  0.22335725     0.04800
C1881       C  0.86259222  0.35961437  0.20962175    -0.07500
C1882       C  0.87277229  0.34808348  0.23714725    -0.08300
C1883       C  0.86902759  0.34919288  0.27853475    -0.02800
C1884       C  0.85394361  0.36137377  0.29230089     0.04000
N1885       N  0.84851248  0.36184228  0.33402898     0.66500
H1886       H  0.83211101  0.38210982  0.27598399     0.15400
H1887       H  0.88415598  0.33863524  0.22603396     0.15100
N1888       N  0.86705361  0.35789881  0.16781908     0.74200
O1889       O  0.86237561  0.38342036  0.35402915    -0.39200
O1890       O  0.82729174  0.34235300  0.34916494    -0.39200
O1891       O  0.89058687  0.37242947  0.15330247    -0.39900
O1892       O  0.84875810  0.33895621  0.14702419    -0.39900
C1893       C  0.71937934  0.41961498  0.15729080    -0.12200
C1894       C  0.72974962  0.41595690  0.12092002     0.04800
C1895       C  0.71573334  0.41481672  0.08503655    -0.07500
C1896       C  0.69140229  0.41581159  0.08648247    -0.08300
C1897       C  0.67993031  0.41726818  0.12312636    -0.02800
C1898       C  0.69481471  0.42017016  0.15875340     0.04000
N1899       N  0.68500022  0.42292732  0.19692669     0.66500
H1900       H  0.72986965  0.42109604  0.18523360     0.15400
H1901       H  0.68052151  0.41354343  0.05865740     0.15100
N1902       N  0.72457458  0.41050414  0.04701344     0.74200
O1903       O  0.67330126  0.40243155  0.21976136    -0.39200
O1904       O  0.69253724  0.44646581  0.21068585    -0.39200
O1905       O  0.71719923  0.38644579  0.03575473    -0.39900
O1906       O  0.73437817  0.42966726  0.02170334    -0.39900
C1907       C  0.72241740  0.30035640  0.09822437    -0.12200
C1908       C  0.73158832  0.31605778  0.13342910     0.04800
C1909       C  0.71689133  0.30490513  0.16939387    -0.07500
C1910       C  0.69262935  0.27974244  0.16875481    -0.08300
C1911       C  0.68237276  0.26515651  0.13288594    -0.02800
C1912       C  0.69831052  0.27495856  0.09770748     0.04000
N1913       N  0.69010127  0.25958263  0.06112241     0.66500
H1914       H  0.73380498  0.30804995  0.07062778     0.15400
H1915       H  0.68082046  0.27258897  0.19610480     0.15100
N1916       N  0.72484223  0.31985155  0.20619078     0.74200
O1917       O  0.69030936  0.27110842  0.02852707    -0.39200
O1918       O  0.68418624  0.23482901  0.06092841    -0.39200
O1919       O  0.71494457  0.33484493  0.21556698    -0.39900
O1920       O  0.73817147  0.31474950  0.23188960    -0.39900
Fe1921     Fe  0.84939357  0.42452540  0.62435770     1.65800
Fe1922     Fe  0.78998593  0.39790093  0.67535558     1.73200
Fe1923     Fe  0.78910325  0.39574949  0.57331292     1.54400
O1924       O  0.81612465  0.43275631  0.54620869    -0.81600
O1925       O  0.76600250  0.35729765  0.66102349    -0.79900
O1926       O  0.85203192  0.45491107  0.58716933    -0.84100
O1927       O  0.85218684  0.40388074  0.57554960    -0.79000
O1928       O  0.76521395  0.41273355  0.58888318    -0.80800
O1929       O  0.81689031  0.38825819  0.70433742    -0.83500
C1930       C  0.83589765  0.38559025  0.55169451     0.97300
C1931       C  0.83857046  0.45379375  0.55588733     1.04700
O1932       O  0.80938730  0.40599152  0.62413008    -1.12500
O1933       O  0.81189046  0.43797571  0.69372241    -0.74900
O1934       O  0.85352212  0.44863605  0.67348987    -0.78400
O1935       O  0.81048911  0.37742579  0.55121330    -0.79100
C1936       C  0.83756668  0.45319504  0.69464268     0.96200
O1937       O  0.84960478  0.39508324  0.66099116    -0.77100
O1938       O  0.76016181  0.40597256  0.65454625    -0.82300
C1939       C  0.75350970  0.34569807  0.62891669     0.98800
C1940       C  0.75350827  0.41230171  0.62150868     1.04700
O1941       O  0.75953046  0.35782190  0.59506045    -0.77900
C1942       C  0.83721834  0.38574808  0.69395047     1.03000
Fe1943     Fe  0.56815488  0.42559987  0.62310219     1.65800
Fe1944     Fe  0.59911749  0.39551117  0.67356439     1.73200
Fe1945     Fe  0.60045754  0.39747203  0.57108006     1.54400
O1946       O  0.56368534  0.38585990  0.54307655    -0.81600
O1947       O  0.63967209  0.41182803  0.65784143    -0.79900
O1948       O  0.54030602  0.39918324  0.58167136    -0.84100
O1949       O  0.59167435  0.45297602  0.57871899    -0.79000
O1950       O  0.58566571  0.35699288  0.58603956    -0.80800
O1951       O  0.60951687  0.43201741  0.70186113    -0.83500
C1952       C  0.60966746  0.45496086  0.55404659     0.97300
C1953       C  0.54214515  0.38655019  0.55145257     1.04700
O1954       O  0.58932430  0.40630629  0.62259578    -1.12500
O1955       O  0.55967928  0.37747358  0.69551982    -0.74900
O1956       O  0.54201379  0.40114606  0.66746545    -0.78400
O1957       O  0.61643876  0.43676314  0.54988346    -0.79100
C1958       C  0.54073722  0.38328842  0.69198406     0.96200
O1959       O  0.59309152  0.45382883  0.66536463    -0.77100
O1960       O  0.59022797  0.35774735  0.65223763    -0.82300
C1961       C  0.65140219  0.41289416  0.62495130     0.98800
C1962       C  0.58486848  0.34528937  0.61890353     1.04700
O1963       O  0.63886418  0.40753971  0.59162043    -0.77900
C1964       C  0.60643947  0.45252068  0.69519423     1.03000
Fe1965     Fe  0.57370748  0.14801369  0.62738453     1.65800
Fe1966     Fe  0.60209640  0.20807412  0.57609141     1.73200
Fe1967     Fe  0.60114066  0.20792526  0.67828744     1.54400
O1968       O  0.56124193  0.18657642  0.69750799    -0.81600
O1969       O  0.63954854  0.23797435  0.59770282    -0.79900
O1970       O  0.54828825  0.14491176  0.67408687    -0.84100
O1971       O  0.60178801  0.14735211  0.66622510    -0.79000
O1972       O  0.59336007  0.23775197  0.65669183    -0.80800
O1973       O  0.62091019  0.18740406  0.55437757    -0.83500
C1974       C  0.61194984  0.16022572  0.69859886     0.97300
C1975       C  0.54446930  0.16112610  0.69607206     1.04700
O1976       O  0.59232487  0.18799066  0.62713544    -1.12500
O1977       O  0.56607556  0.18075490  0.54786209    -0.74900
O1978       O  0.54375841  0.14484593  0.58839274    -0.78400
O1979       O  0.61060194  0.18130869  0.70822424    -0.79100
C1980       C  0.54514855  0.15826043  0.55702952     0.96200
O1981       O  0.59678076  0.14571633  0.58081005    -0.77100
O1982       O  0.58421588  0.23100305  0.59170394    -0.82300
C1983       C  0.65265833  0.24336780  0.63061076     0.98800
C1984       C  0.58574796  0.24347737  0.62406569     1.04700
O1985       O  0.64170723  0.23115144  0.66316685    -0.77900
C1986       C  0.61475094  0.16253691  0.55686563     1.03000
Fe1987     Fe  0.92174668  0.35030347  0.87344393     1.65800
Fe1988     Fe  0.89201689  0.29021578  0.82365500     1.73200
Fe1989     Fe  0.89233689  0.29079966  0.92542979     1.54400
O1990       O  0.92893238  0.31875035  0.95252247    -0.81600
O1991       O  0.85165471  0.26755263  0.84018393    -0.79900
O1992       O  0.95274757  0.35184474  0.90821731    -0.84100
O1993       O  0.90231978  0.35387543  0.92398362    -0.79000
O1994       O  0.90975602  0.26732630  0.90989505    -0.80800
O1995       O  0.88294863  0.31784274  0.79539550    -0.83500
C1996       C  0.88269991  0.33754401  0.94624689     0.97300
C1997       C  0.95084256  0.33975605  0.94122120     1.04700
O1998       O  0.90202539  0.31034700  0.87419699    -1.12500
O1999       O  0.93156466  0.31091044  0.80257511    -0.74900
O2000       O  0.94416937  0.35315107  0.82263906    -0.78400
O2001       O  0.87363531  0.31196910  0.94571332    -0.79100
C2002       C  0.94733213  0.33655716  0.80064531     0.96200
O2003       O  0.89213866  0.35147032  0.83853174    -0.77100
O2004       O  0.89951015  0.25985577  0.84503892    -0.82300
C2005       C  0.84115088  0.25485880  0.87262221     0.98800
C2006       C  0.90734593  0.25423484  0.87776094     1.04700
O2007       O  0.85457954  0.26041114  0.90518844    -0.77900
C2008       C  0.88185511  0.33902484  0.80585195     1.03000
Fe2009     Fe  0.92611637  0.07210633  0.87368077     1.65800
Fe2010     Fe  0.89559535  0.10177049  0.92457995     1.73200
Fe2011     Fe  0.89411960  0.10061433  0.82297703     1.54400
O2012       O  0.93330310  0.11949481  0.80077795    -0.81600
O2013       O  0.85740015  0.09385109  0.90486078    -0.79900
O2014       O  0.94873229  0.09243999  0.82358977    -0.84100
O2015       O  0.89776193  0.04131658  0.83806759    -0.79000
O2016       O  0.90128906  0.13853057  0.84302484    -0.80800
O2017       O  0.87772180  0.06223880  0.94567646    -0.83500
C2018       C  0.88597870  0.04246392  0.80630179     0.97300
C2019       C  0.95047401  0.11118712  0.80048552     1.04700
O2020       O  0.90531280  0.09154485  0.87370346    -1.12500
O2021       O  0.93241815  0.11119299  0.95189157    -0.74900
O2022       O  0.95644326  0.10122313  0.90926121    -0.78400
O2023       O  0.88509240  0.06378611  0.79605204    -0.79100
C2024       C  0.95441810  0.11176085  0.94172999     0.96200
O2025       O  0.90640862  0.04873710  0.92375139    -0.77100
O2026       O  0.91232975  0.14225746  0.90768096    -0.82300
C2027       C  0.84364053  0.08548491  0.87261343     0.98800
C2028       C  0.90947498  0.15242542  0.87517541     1.04700
O2029       O  0.85391443  0.08275735  0.84037714    -0.77900
C2030       C  0.88697829  0.04580372  0.94620474     1.03000
Fe2031     Fe  0.64475904  0.07322398  0.87695382     1.65800
Fe2032     Fe  0.70607653  0.10231169  0.92656177     1.73200
Fe2033     Fe  0.70402007  0.09900068  0.82373995     1.54400
O2034       O  0.68033678  0.05954407  0.80382340    -0.81600
O2035       O  0.73405457  0.14030449  0.90440212    -0.79900
O2036       O  0.64002265  0.04509946  0.83287800    -0.84100
O2037       O  0.64314705  0.09929246  0.83501206    -0.79000
O2038       O  0.73219849  0.08848246  0.84353627    -0.80800
O2039       O  0.68424799  0.11955386  0.95065972    -0.83500
C2040       C  0.65703535  0.11090519  0.80400470     0.97300
C2041       C  0.65534767  0.04197189  0.80806098     1.04700
O2042       O  0.68496388  0.09148012  0.87585956    -1.12500
O2043       O  0.68060973  0.06572375  0.95494415    -0.74900
O2044       O  0.64185545  0.04533303  0.91970304    -0.78400
O2045       O  0.67897672  0.11101801  0.79551403    -0.79100
C2046       C  0.65670236  0.04592680  0.94885101     0.96200
O2047       O  0.64365781  0.09879161  0.92057829    -0.77100
O2048       O  0.73112785  0.08666652  0.90999332    -0.82300
C2049       C  0.74099799  0.15173412  0.87021567     0.98800
C2050       C  0.74068366  0.08442167  0.87667755     1.04700
O2051       O  0.73005397  0.13928428  0.83786255    -0.77900
C2052       C  0.66010417  0.11536586  0.94632432     1.03000
C2053       C  0.77740221  0.08170782  0.83888447    -0.12200
C2054       C  0.76408167  0.07898089  0.87568766     0.04800
C2055       C  0.77560405  0.07457789  0.91072348    -0.07500
C2056       C  0.80083837  0.07535256  0.90879820    -0.08300
C2057       C  0.81504568  0.08020149  0.87242026    -0.02800
C2058       C  0.80257010  0.08252513  0.83697066     0.04000
N2059       N  0.81624998  0.08826434  0.79919799     0.66500
H2060       H  0.76915118  0.08495470  0.81136205     0.15400
H2061       H  0.80972976  0.07292157  0.93626781     0.15100
N2062       N  0.76241255  0.06997197  0.94871668     0.74200
O2063       O  0.81025613  0.06924150  0.77435793    -0.39200
O2064       O  0.83346037  0.11254723  0.78992114    -0.39200
O2065       O  0.74640797  0.04581569  0.96006116    -0.39900
O2066       O  0.77051507  0.08930553  0.97360449    -0.39900
C2067       C  0.80384653  0.21654438  0.83519938    -0.12200
C2068       C  0.81301797  0.23113797  0.87134106     0.04800
C2069       C  0.79609848  0.22101544  0.90556905    -0.07500
C2070       C  0.77175375  0.19599595  0.90355527    -0.08300
C2071       C  0.76380802  0.18034802  0.86834046    -0.02800
C2072       C  0.77966856  0.19140179  0.83339351     0.04000
N2073       N  0.77276622  0.17654599  0.79652951     0.66500
H2074       H  0.81631864  0.22383997  0.80847475     0.15400
H2075       H  0.75952781  0.18826134  0.93044779     0.15100
N2076       N  0.80287503  0.23564736  0.94264002     0.74200
O2077       O  0.75932892  0.18103126  0.77024429    -0.39200
O2078       O  0.78364518  0.16232967  0.78777946    -0.39200
O2079       O  0.78605991  0.24182023  0.95735488    -0.39900
O2080       O  0.82011876  0.23453292  0.96559799    -0.39900
C2081       C  0.91451579  0.21955257  0.84142380    -0.12200
C2082       C  0.91256643  0.23069149  0.87814738     0.04800
C2083       C  0.91310745  0.21744661  0.91398002    -0.07500
C2084       C  0.91396554  0.19299269  0.91228988    -0.08300
C2085       C  0.91399798  0.18089078  0.87545397    -0.02800
C2086       C  0.91522239  0.19505289  0.83973526     0.04000
N2087       N  0.91654958  0.18461177  0.80129760     0.66500
H2088       H  0.91468882  0.22947940  0.81347966     0.15400
H2089       H  0.91301405  0.18266140  0.94017705     0.15100
N2090       N  0.91073272  0.22729644  0.95234923     0.74200
O2091       O  0.89541920  0.17303453  0.77967676    -0.39200
O2092       O  0.93948351  0.19109709  0.78632463    -0.39200
O2093       O  0.88747306  0.21834101  0.96789516    -0.39900
O2094       O  0.93182025  0.24109829  0.97337051    -0.39900
C2095       C  0.97306368  0.12654384  0.51390710    -0.12200
C2096       C  0.97808825  0.12449004  0.96970212     0.04800
C2097       C  0.50621032  0.13784941  0.95785971    -0.07500
C2098       C  0.52787602  0.14993950  0.98523440    -0.08300
C2099       C  0.52201913  0.14676527  0.52884705    -0.02800
C2100       C  0.99465485  0.13782974  0.54149891     0.04000
N2101       N  0.98896872  0.13947889  0.58283018     0.66500
H2102       H  0.95245314  0.11877677  0.52482624     0.15400
H2103       H  0.54862999  0.15909956  0.97423020     0.15100
N2104       N  0.51223685  0.13823579  0.91617431     0.74200
O2105       O  0.99273755  0.16184880  0.59699192    -0.39200
O2106       O  0.97648539  0.11793166  0.60340538    -0.39200
O2107       O  0.52086976  0.16012563  0.89648902    -0.39900
O2108       O  0.51413956  0.11864950  0.90136104    -0.39900
C2109       C  0.48607173  0.15207774  0.76362982    -0.12200
C2110       C  0.97337859  0.12352738  0.77200352     0.04800
C2111       C  0.98131606  0.10715434  0.75044465    -0.07500
C2112       C  0.00419098  0.11933456  0.72563256    -0.08300
C2113       C  0.52007600  0.14921696  0.72220540    -0.02800
C2114       C  0.50808659  0.16436007  0.73690797     0.04000
N2115       N  0.51745721  0.19190584  0.72448738     0.66500
H2116       H  0.47707182  0.16388465  0.77469668     0.15400
H2117       H  0.00992209  0.10620982  0.70970147     0.15100
N2118       N  0.96569557  0.07800524  0.75220411     0.74200
O2119       O  0.51454285  0.19682787  0.68842467    -0.39200
O2120       O  0.52347083  0.21019507  0.75062171    -0.39200
O2121       O  0.94264648  0.06572395  0.73529944    -0.39900
O2122       O  0.97677060  0.06456711  0.76428881    -0.39900
C2123       C  0.63724203  0.13505063  0.70991566    -0.12200
C2124       C  0.62551379  0.14985387  0.72608078     0.04800
C2125       C  0.62566492  0.15296162  0.76814991    -0.07500
C2126       C  0.63594106  0.14003459  0.79295997    -0.08300
C2127       C  0.64712463  0.12481554  0.77670381    -0.02800
C2128       C  0.64822268  0.12282145  0.73470757     0.04000
N2129       N  0.65898609  0.10714635  0.71675626     0.66500
H2130       H  0.63755645  0.13261581  0.67793309     0.15400
H2131       H  0.63530013  0.14200407  0.82500614     0.15100
N2132       N  0.61479410  0.16846599  0.78634089     0.74200
O2133       O  0.64389605  0.08167230  0.71259131    -0.39200
O2134       O  0.68180961  0.11918204  0.69936678    -0.39200
O2135       O  0.59176219  0.15624052  0.80311414    -0.39900
O2136       O  0.63024604  0.19368311  0.79250826    -0.39900
C2137       C  0.62429998  0.15257738  0.98689951    -0.12200
C2138       C  0.62805351  0.15238985  0.52927797     0.04800
C2139       C  0.64316618  0.14031541  0.54338264    -0.07500
C2140       C  0.65410747  0.12946521  0.51605796    -0.08300
C2141       C  0.65025913  0.12939648  0.97363966    -0.02800
C2142       C  0.63446730  0.14086451  0.95969180     0.04000
N2143       N  0.62896146  0.14121695  0.91794121     0.66500
H2144       H  0.61209539  0.16117880  0.97576587     0.15400
H2145       H  0.66564881  0.12015861  0.52727060     0.15100
N2146       N  0.64746766  0.13884808  0.58532260     0.74200
O2147       O  0.60707837  0.12229776  0.90331024    -0.39200
O2148       O  0.64272451  0.16291747  0.89815795    -0.39200
O2149       O  0.63569908  0.11600333  0.60287799    -0.39900
O2150       O  0.66625903  0.15932994  0.60307119    -0.39900
C2151       C  0.64224828  0.00284216  0.54281669    -0.12200
C2152       C  0.62246693  0.47890862  0.52757714     0.04800
C2153       C  0.61633820  0.47458575  0.98674317    -0.07500
C2154       C  0.62818366  0.49709468  0.96093833    -0.08300
C2155       C  0.64541523  0.02253527  0.97697762    -0.02800
C2156       C  0.65478556  0.02566010  0.51740589     0.04000
N2157       N  0.67510036  0.05116488  0.53375197     0.66500
H2158       H  0.64813791  0.00495672  0.57412851     0.15400
H2159       H  0.62464721  0.49379728  0.92896311     0.15100
N2160       N  0.59938360  0.44799761  0.97018018     0.74200
O2161       O  0.66803881  0.06675038  0.55050498    -0.39200
O2162       O  0.69937562  0.05600023  0.53718605    -0.39200
O2163       O  0.57440309  0.43966862  0.96400671    -0.39900
O2164       O  0.61010926  0.43479242  0.95602586    -0.39900
C2165       C  0.64451447  0.48333078  0.74051958    -0.12200
C2166       C  0.61881186  0.47561780  0.72382622     0.04800
C2167       C  0.60487685  0.48934049  0.73616822    -0.07500
C2168       C  0.61531023  0.00500312  0.77213445    -0.08300
C2169       C  0.64324459  0.01754764  0.78154390    -0.02800
C2170       C  0.65925892  0.00772686  0.76297765     0.04000
N2171       N  0.68762475  0.01918752  0.77204129     0.66500
H2172       H  0.65531681  0.47273797  0.73178207     0.15400
H2173       H  0.60260720  0.01217107  0.78579485     0.15100
N2174       N  0.57821697  0.48151808  0.72128868     0.74200
O2175       O  0.69485955  0.01137364  0.80288234    -0.39200
O2176       O  0.70525189  0.03373825  0.74630130    -0.39200
O2177       O  0.55752252  0.46523457  0.74132990    -0.39900
O2178       O  0.57552955  0.49437424  0.69222539    -0.39900
C2179       C  0.50514145  0.38576798  0.73177341    -0.12200
C2180       C  0.51678615  0.37014438  0.71895568     0.04800
C2181       C  0.50611169  0.34323374  0.73367492    -0.07500
C2182       C  0.98501879  0.33433150  0.76492784    -0.08300
C2183       C  0.97004055  0.34776449  0.77146476    -0.02800
C2184       C  0.97700274  0.37192864  0.74989504     0.04000
N2185       N  0.96152046  0.38560690  0.75399764     0.66500
H2186       H  0.51310200  0.40651177  0.72100892     0.15400
H2187       H  0.97968465  0.31556103  0.78087207     0.15100
N2188       N  0.51647859  0.32608879  0.72009772     0.74200
O2189       O  0.97010295  0.40618577  0.77660794    -0.39200
O2190       O  0.94204520  0.38007106  0.73016939    -0.39200
O2191       O  0.52983385  0.31962565  0.74379626    -0.39900
O2192       O  0.50898599  0.31431631  0.68655701    -0.39900
C2193       C  0.52191707  0.36569641  0.98662357    -0.12200
C2194       C  0.51851987  0.37259535  0.52411214     0.04800
C2195       C  0.99188030  0.36306422  0.53759994    -0.07500
C2196       C  0.97010625  0.35215621  0.51040588    -0.08300
C2197       C  0.97448479  0.35115110  0.96873104    -0.02800
C2198       C  0.50007559  0.35463666  0.95939527     0.04000
N2199       N  0.50439047  0.34809420  0.91968658     0.66500
H2200       H  0.54185594  0.36983976  0.97655999     0.15400
H2201       H  0.94965089  0.34526904  0.52139208     0.15100
N2202       N  0.98639806  0.36408429  0.57919300     0.74200
O2203       O  0.51344019  0.36635687  0.89296044    -0.39200
O2204       O  0.01047529  0.33890192  0.90252226    -0.39200
O2205       O  0.97872864  0.38043074  0.59116450    -0.39900
O2206       O  0.98574808  0.34628734  0.60291039    -0.39900
C2207       C  0.57795828  0.27734104  0.58610776    -0.12200
C2208       C  0.58016418  0.26669171  0.62328365     0.04800
C2209       C  0.57936948  0.28010020  0.65869809    -0.07500
C2210       C  0.57858436  0.30442228  0.65616166    -0.08300
C2211       C  0.57916838  0.31651154  0.61906554    -0.02800
C2212       C  0.57744619  0.30194604  0.58367793     0.04000
N2213       N  0.57624372  0.31223044  0.54497163     0.66500
H2214       H  0.57790050  0.26724756  0.55846886     0.15400
H2215       H  0.57904530  0.31463412  0.68388841     0.15100
N2216       N  0.58038184  0.27013357  0.69775444     0.74200
O2217       O  0.59755423  0.32426678  0.52395027    -0.39200
O2218       O  0.55334885  0.30538309  0.52933297    -0.39200
O2219       O  0.60330745  0.27684255  0.71319407    -0.39900
O2220       O  0.55992260  0.26199696  0.72035123    -0.39900
C2221       C  0.87170185  0.47959254  0.74662750    -0.12200
C2222       C  0.84970460  0.47622425  0.72293156     0.04800
C2223       C  0.83927258  0.49412100  0.72789181    -0.07500
C2224       C  0.85106997  0.51513369  0.75630040    -0.08300
C2225       C  0.87290974  0.01825229  0.77973071    -0.02800
C2226       C  0.88527117  0.00223361  0.77134627     0.04000
N2227       N  0.91021979  0.00731978  0.79019101     0.66500
H2228       H  0.88312522  0.96917869  0.73682771     0.15400
H2229       H  0.84318131  0.52910349  0.75919934     0.15100
N2230       N  0.81778094  0.49214820  0.70278772     0.74200
O2231       O  0.91012746  0.00179790  0.82689318    -0.39200
O2232       O  0.92977330  0.01005524  0.76865331    -0.39200
O2233       O  0.79481486  0.48557656  0.71771599    -0.39900
O2234       O  0.82282755  0.50047728  0.66700831    -0.39900
C2235       C  0.87835602  0.49006899  0.51994928    -0.12200
C2236       C  0.85043913  0.47760581  0.52867377     0.04800
C2237       C  0.83459598  0.48763068  0.51035009    -0.07500
C2238       C  0.84652373  0.00828292  0.98034527    -0.08300
C2239       C  0.87485759  0.02246038  0.97430549    -0.02800
C2240       C  0.89122900  0.01408908  0.99528770     0.04000
N2241       N  0.92028513  0.02856941  0.99132356     0.66500
H2242       H  0.89075166  0.48242468  0.53351410     0.15400
H2243       H  0.83369971  0.01448235  0.96442347     0.15100
N2244       N  0.80602579  0.47527664  0.51792719     0.74200
O2245       O  0.93332119  0.55027959  0.01163390    -0.39200
O2246       O  0.93220206  0.01695646  0.97566793    -0.39200
O2247       O  0.79988386  0.98608425  0.55446764    -0.39900
O2248       O  0.78929429  0.45942027  0.49213912    -0.39900
C2249       C  0.83218296  0.34589850  0.51345780    -0.12200
C2250       C  0.84739013  0.37360504  0.52363223     0.04800
C2251       C  0.87398415  0.38939990  0.50788690    -0.07500
C2252       C  0.88658135  0.37649473  0.98646647    -0.08300
C2253       C  0.87063735  0.34918524  0.97419853    -0.02800
C2254       C  0.84368961  0.33389045  0.98883576     0.04000
N2255       N  0.82667358  0.30594500  0.97812984     0.66500
H2256       H  0.81180242  0.33346042  0.52538151     0.15400
H2257       H  0.90737302  0.38866699  0.97591765     0.15100
N2258       N  0.88977990  0.41812532  0.51536166     0.74200
O2259       O  0.82610822  0.28760893  0.00055943    -0.39200
O2260       O  0.80822586  0.29971892  0.95213979    -0.39200
O2261       O  0.91129778  0.42745525  0.53609913    -0.39900
O2262       O  0.88461170  0.43437829  0.49620828    -0.39900
C2263       C  0.84623472  0.37624607  0.76359826    -0.12200
C2264       C  0.84732782  0.37236396  0.72219205     0.04800
C2265       C  0.85910608  0.35681381  0.70873146    -0.07500
C2266       C  0.86965399  0.34573571  0.73651430    -0.08300
C2267       C  0.86907696  0.35005103  0.77792853    -0.02800
C2268       C  0.85717626  0.36554237  0.79137467     0.04000
N2269       N  0.85583026  0.37046589  0.83309921     0.66500
H2270       H  0.83743990  0.38828919  0.77450744     0.15400
H2271       H  0.87874508  0.33400092  0.72546078     0.15100
N2272       N  0.85996937  0.35154924  0.66700892     0.74200
O2273       O  0.87376221  0.39261254  0.84851009    -0.39200
O2274       O  0.83448712  0.35509137  0.85259634    -0.39200
O2275       O  0.88254519  0.36239698  0.64890531    -0.39900
O2276       O  0.83889482  0.33315902  0.64983858    -0.39900
C2277       C  0.71903218  0.41933958  0.65852632    -0.12200
C2278       C  0.73025528  0.41792105  0.62154612     0.04800
C2279       C  0.71736107  0.41948269  0.58595606    -0.07500
C2280       C  0.69287210  0.42008666  0.58808530    -0.08300
C2281       C  0.68026876  0.41873410  0.62499558    -0.02800
C2282       C  0.69440368  0.41969968  0.66059990     0.04000
N2283       N  0.68348942  0.41958918  0.69924866     0.66500
H2284       H  0.72875890  0.41894634  0.68638322     0.15400
H2285       H  0.68290583  0.42002185  0.56023471     0.15100
N2286       N  0.72775591  0.41890146  0.54718123     0.74200
O2287       O  0.66906573  0.39719507  0.71715765    -0.39200
O2288       O  0.69220242  0.44173999  0.71821443    -0.39200
O2289       O  0.72226957  0.39621303  0.53206844    -0.39900
O2290       O  0.73594724  0.43950202  0.52465761    -0.39900
C2291       C  0.72119221  0.30120727  0.59643973    -0.12200
C2292       C  0.73006836  0.31736213  0.63124335     0.04800
C2293       C  0.71497897  0.30688287  0.66705682    -0.07500
C2294       C  0.69103853  0.28149569  0.66689187    -0.08300
C2295       C  0.68121213  0.26624827  0.63149003    -0.02800
C2296       C  0.69717844  0.27570083  0.59631466     0.04000
N2297       N  0.68917076  0.25976233  0.56024284     0.66500
H2298       H  0.73282157  0.30855945  0.56897565     0.15400
H2299       H  0.67898719  0.27475009  0.69407194     0.15100
N2300       N  0.72197750  0.32287213  0.70288995     0.74200
O2301       O  0.68930888  0.27071997  0.52713292    -0.39200
O2302       O  0.68338876  0.23505170  0.56106520    -0.39200
O2303       O  0.71458057  0.34051584  0.70704463    -0.39900
O2304       O  0.73134492  0.31628779  0.73265469    -0.39900
Fe2305     Fe  0.85065965  0.92577287  0.12449229     1.65800
Fe2306     Fe  0.79093298  0.89722001  0.17557452     1.73200
Fe2307     Fe  0.79027088  0.89557086  0.07343457     1.54400
O2308       O  0.81690100  0.93264617  0.04600737    -0.81600
O2309       O  0.76701077  0.85665285  0.16057587    -0.79900
O2310       O  0.85254394  0.95564576  0.08697431    -0.84100
O2311       O  0.85388016  0.90495021  0.07609596    -0.79000
O2312       O  0.76577896  0.91192520  0.08910474    -0.80800
O2313       O  0.81794150  0.88733715  0.20355764    -0.83500
C2314       C  0.83778057  0.88620440  0.05260393     0.97300
C2315       C  0.83912704  0.95401830  0.05543176     1.04700
O2316       O  0.81053265  0.90617606  0.12437531    -1.12500
O2317       O  0.81248116  0.93699329  0.19571003    -0.74900
O2318       O  0.85425522  0.94996139  0.17341758    -0.78400
O2319       O  0.81231324  0.87781117  0.05180344    -0.79100
C2320       C  0.83800086  0.95325395  0.19587792     0.96200
O2321       O  0.85207250  0.89717663  0.16132517    -0.77100
O2322       O  0.76110545  0.90544662  0.15494557    -0.82300
C2323       C  0.75468550  0.84506202  0.12839314     0.98800
C2324       C  0.75416767  0.91151128  0.12187128     1.04700
O2325       O  0.76086794  0.85734726  0.09468467    -0.77900
C2326       C  0.83917370  0.88636709  0.19340043     1.03000
Fe2327     Fe  0.56892598  0.92539312  0.12611303     1.65800
Fe2328     Fe  0.59947999  0.89513482  0.17751425     1.73200
Fe2329     Fe  0.59985196  0.89552579  0.07474207     1.54400
O2330       O  0.56146318  0.87995487  0.05006443    -0.81600
O2331       O  0.63883494  0.90672851  0.15923945    -0.79900
O2332       O  0.54304576  0.90213894  0.08022103    -0.84100
O2333       O  0.59541135  0.95452348  0.08612356    -0.79000
O2334       O  0.58895357  0.85643376  0.09307549    -0.80800
O2335       O  0.61441550  0.93349294  0.20225794    -0.83500
C2336       C  0.60912876  0.95361748  0.05665509     0.97300
C2337       C  0.54231863  0.88536910  0.05421590     1.04700
O2338       O  0.58948573  0.90541710  0.12611822    -1.12500
O2339       O  0.56132170  0.88152299  0.20261912    -0.74900
O2340       O  0.54027706  0.89867472  0.16591912    -0.78400
O2341       O  0.61185497  0.93306604  0.04897378    -0.79100
C2342       C  0.54064280  0.88399517  0.19455145     0.96200
O2343       O  0.59131637  0.95121690  0.17254078    -0.77100
O2344       O  0.58588576  0.85564412  0.15951534    -0.82300
C2345       C  0.65145378  0.91143431  0.12613202     0.98800
C2346       C  0.58411350  0.84395889  0.12632078     1.04700
O2347       O  0.63976564  0.90971978  0.09276587    -0.77900
C2348       C  0.60801541  0.95203573  0.19883080     1.03000
Fe2349     Fe  0.57369419  0.64736598  0.12327162     1.65800
Fe2350     Fe  0.60260621  0.70865986  0.07455596     1.73200
Fe2351     Fe  0.60170230  0.70637147  0.17672092     1.54400
O2352       O  0.56170105  0.68487753  0.19590917    -0.81600
O2353       O  0.64028360  0.73772651  0.09666240    -0.79900
O2354       O  0.54779482  0.64352783  0.17013631    -0.84100
O2355       O  0.60093306  0.64521149  0.16212236    -0.79000
O2356       O  0.59431485  0.73662412  0.15754889    -0.80800
O2357       O  0.62093511  0.68790845  0.05070410    -0.83500
C2358       C  0.61100489  0.65763113  0.19477393     0.97300
C2359       C  0.54453506  0.65954413  0.19347472     1.04700
O2360       O  0.59269608  0.68742862  0.12471749    -1.12500
O2361       O  0.56641000  0.68243052  0.04584907    -0.74900
O2362       O  0.54434605  0.64526792  0.08408043    -0.78400
O2363       O  0.61053875  0.67905705  0.20478479    -0.79100
C2364       C  0.54559634  0.65957624  0.05388405     0.96200
O2365       O  0.59744887  0.64600386  0.07674078    -0.77100
O2366       O  0.58525741  0.73180761  0.09248047    -0.82300
C2367       C  0.65346795  0.74257845  0.12943477     0.98800
C2368       C  0.58678008  0.74331263  0.12583442     1.04700
O2369       O  0.64247803  0.72986399  0.16173724    -0.77900
C2370       C  0.61530591  0.66315142  0.05290997     1.03000
Fe2371     Fe  0.92381175  0.85150863  0.37196854     1.65800
Fe2372     Fe  0.89520725  0.79142494  0.32210967     1.73200
Fe2373     Fe  0.89376435  0.79201060  0.42387568     1.54400
O2374       O  0.93016928  0.81975621  0.45145289    -0.81600
O2375       O  0.85456385  0.76818586  0.33711600    -0.79900
O2376       O  0.95443021  0.85308354  0.40762874    -0.84100
O2377       O  0.90393033  0.85526374  0.42172689    -0.79000
O2378       O  0.91119945  0.76826207  0.40961588    -0.80800
O2379       O  0.88610553  0.81877656  0.29312822    -0.83500
C2380       C  0.88399503  0.83901233  0.44351357     0.97300
C2381       C  0.95223182  0.84071780  0.44047504     1.04700
O2382       O  0.90421963  0.81152857  0.37268706    -1.12500
O2383       O  0.93502515  0.81245529  0.30252623    -0.74900
O2384       O  0.94684928  0.85462456  0.32185062    -0.78400
O2385       O  0.87498968  0.81343322  0.44322451    -0.79100
C2386       C  0.95056144  0.83810477  0.30058349     0.96200
O2387       O  0.89435800  0.85221627  0.33629948    -0.77100
O2388       O  0.90304676  0.76155062  0.34420846    -0.82300
C2389       C  0.84334211  0.75603529  0.36959404     0.98800
C2390       C  0.91021186  0.75580588  0.37739766     1.04700
O2391       O  0.85616770  0.76192087  0.40272245    -0.77900
C2392       C  0.88443267  0.83963344  0.30359542     1.03000
Fe2393     Fe  0.92706762  0.57263436  0.37605770     1.65800
Fe2394     Fe  0.89653276  0.60271350  0.42650041     1.73200
Fe2395     Fe  0.89596226  0.60188137  0.32456081     1.54400
O2396       O  0.93510394  0.61960529  0.30213392    -0.81600
O2397       O  0.85841888  0.59453354  0.40640150    -0.79900
O2398       O  0.95080426  0.59336867  0.32716291    -0.84100
O2399       O  0.89934038  0.54234982  0.33908526    -0.79000
O2400       O  0.90434840  0.64017600  0.34416794    -0.80800
O2401       O  0.87874146  0.56322086  0.44816540    -0.83500
C2402       C  0.88709066  0.54349352  0.30783542     0.97300
C2403       C  0.95249880  0.61156989  0.30300873     1.04700
O2404       O  0.90652852  0.59243320  0.37566889    -1.12500
O2405       O  0.93323265  0.61247686  0.45422132    -0.74900
O2406       O  0.95683572  0.60107455  0.41296588    -0.78400
O2407       O  0.88590496  0.56473734  0.29820087    -0.79100
C2408       C  0.95499170  0.61237496  0.44473680     0.96200
O2409       O  0.90631307  0.54872961  0.42490763    -0.77100
O2410       O  0.91313826  0.64325600  0.40956701    -0.82300
C2411       C  0.84501752  0.58711040  0.37376893     0.98800
C2412       C  0.91172451  0.65383762  0.37655397     1.04700
O2413       O  0.85568991  0.58530789  0.34133977    -0.77900
C2414       C  0.88730613  0.54620306  0.44788439     1.03000
Fe2415     Fe  0.64606498  0.57493900  0.37594873     1.65800
Fe2416     Fe  0.70747710  0.60497524  0.42498684     1.73200
Fe2417     Fe  0.70522181  0.60043300  0.32223492     1.54400
O2418       O  0.68144147  0.56069919  0.30330277    -0.81600
O2419       O  0.73499900  0.64287466  0.40181673    -0.79900
O2420       O  0.64139076  0.54608589  0.33324308    -0.84100
O2421       O  0.64386687  0.59972441  0.33285455    -0.79000
O2422       O  0.73376793  0.59042451  0.34244917    -0.80800
O2423       O  0.68535629  0.62191412  0.44873761    -0.83500
C2424       C  0.65759373  0.61112723  0.30170416     0.97300
C2425       C  0.65657277  0.54290225  0.30822465     1.04700
O2426       O  0.68627869  0.59345899  0.37445965    -1.12500
O2427       O  0.68257947  0.56836109  0.45414183    -0.74900
O2428       O  0.64356198  0.54809389  0.41978914    -0.78400
O2429       O  0.67988270  0.61185981  0.29363022    -0.79100
C2430       C  0.65858014  0.54856357  0.44854671     0.96200
O2431       O  0.64489692  0.60122764  0.41824574    -0.77100
O2432       O  0.73279670  0.58979148  0.40891248    -0.82300
C2433       C  0.74211965  0.65384371  0.36732321     0.98800
C2434       C  0.74243662  0.58716047  0.37598525     1.04700
O2435       O  0.73129679  0.64095758  0.33519450    -0.77900
C2436       C  0.66127090  0.61777205  0.44406731     1.03000
C2437       C  0.77782313  0.58132068  0.33937487    -0.12200
C2438       C  0.76594355  0.58190062  0.37617246     0.04800
C2439       C  0.77876343  0.58053068  0.41198825    -0.07500
C2440       C  0.80352017  0.58039201  0.41032370    -0.08300
C2441       C  0.81637533  0.58189315  0.37359609    -0.02800
C2442       C  0.80269852  0.58145246  0.33774457     0.04000
N2443       N  0.81466006  0.58323643  0.29935218     0.66500
H2444       H  0.76850482  0.58215918  0.31134579     0.15400
H2445       H  0.81332620  0.58035242  0.43829137     0.15100
N2446       N  0.76788127  0.58082251  0.45049674     0.74200
O2447       O  0.81009019  0.56175292  0.28115836    -0.39200
O2448       O  0.82843373  0.60618206  0.28254382    -0.39200
O2449       O  0.75417842  0.55870107  0.46937706    -0.39900
O2450       O  0.77600757  0.60326389  0.46842582    -0.39900
C2451       C  0.80570438  0.71796392  0.33189802    -0.12200
C2452       C  0.81495200  0.73266342  0.36797961     0.04800
C2453       C  0.79771146  0.72299749  0.40196139    -0.07500
C2454       C  0.77306003  0.69829762  0.39985852    -0.08300
C2455       C  0.76511009  0.68238340  0.36493622    -0.02800
C2456       C  0.78123505  0.69302553  0.33009461     0.04000
N2457       N  0.77433329  0.67791223  0.29345267     0.66500
H2458       H  0.81835730  0.72492405  0.30531898     0.15400
H2459       H  0.76063900  0.69091744  0.42662322     0.15100
N2460       N  0.80451776  0.73764666  0.43902380     0.74200
O2461       O  0.76349901  0.68420780  0.26528279    -0.39200
O2462       O  0.78322177  0.66167811  0.28682659    -0.39200
O2463       O  0.78764865  0.74373180  0.45377161    -0.39900
O2464       O  0.82160913  0.73633500  0.46208064    -0.39900
C2465       C  0.91698833  0.72075578  0.34151238    -0.12200
C2466       C  0.91615081  0.73270801  0.37808485     0.04800
C2467       C  0.91827624  0.72050070  0.41406412    -0.07500
C2468       C  0.91852000  0.69569998  0.41282216    -0.08300
C2469       C  0.91703370  0.68260684  0.37624955    -0.02800
C2470       C  0.91760056  0.69622056  0.34023599     0.04000
N2471       N  0.91805443  0.68514741  0.30190830     0.66500
H2472       H  0.91628738  0.73001751  0.31335675     0.15400
H2473       H  0.91864425  0.68609079  0.44093026     0.15100
N2474       N  0.91892905  0.73220938  0.45228632     0.74200
O2475       O  0.89659737  0.67372250  0.28095334    -0.39200
O2476       O  0.94060872  0.69072807  0.28641563    -0.39200
O2477       O  0.89756731  0.72247965  0.47327562    -0.39900
O2478       O  0.94157835  0.74899765  0.46771564    -0.39900
C2479       C  0.97358848  0.62501747  0.01244448    -0.12200
C2480       C  0.97871788  0.62537359  0.47254532     0.04800
C2481       C  0.50519343  0.63240951  0.45978466    -0.07500
C2482       C  0.52673260  0.64438242  0.48724903    -0.08300
C2483       C  0.52233716  0.64869443  0.02583281    -0.02800
C2484       C  0.99534394  0.63654820  0.03967094     0.04000
N2485       N  0.98973304  0.63714014  0.08131135     0.66500
H2486       H  0.95296420  0.61628282  0.02380695     0.15400
H2487       H  0.54735384  0.65127767  0.47699446     0.15100
N2488       N  0.51119736  0.62958927  0.41904631     0.74200
O2489       O  0.99261707  0.65887082  0.09667850    -0.39200
O2490       O  0.97822468  0.61517231  0.10112250    -0.39200
O2491       O  0.52135486  0.65018402  0.39626332    -0.39900
O2492       O  0.51118755  0.60812475  0.40823894    -0.39900
C2493       C  0.48517007  0.64977204  0.25946921    -0.12200
C2494       C  0.97549902  0.62356240  0.27444762     0.04800
C2495       C  0.98505347  0.60740193  0.25600540    -0.07500
C2496       C  0.00677340  0.61923039  0.22898965    -0.08300
C2497       C  0.52051816  0.64760593  0.22042300    -0.02800
C2498       C  0.50698115  0.66184323  0.23228097     0.04000
N2499       N  0.51450681  0.68815109  0.21609689     0.66500
H2500       H  0.47479750  0.66087031  0.26773300     0.15400
H2501       H  0.01383738  0.60635441  0.21559035     0.15100
N2502       N  0.97208383  0.57863066  0.26291920     0.74200
O2503       O  0.50665373  0.68997405  0.18134135    -0.39200
O2504       O  0.52441620  0.70871977  0.23887748    -0.39200
O2505       O  0.95407156  0.56254702  0.23870097    -0.39900
O2506       O  0.98218881  0.56932837  0.28802943    -0.39900
C2507       C  0.63853551  0.63499668  0.20668112    -0.12200
C2508       C  0.62364625  0.64667618  0.22240735     0.04800
C2509       C  0.62064280  0.64722372  0.26430970    -0.07500
C2510       C  0.63215987  0.63583109  0.28954432    -0.08300
C2511       C  0.64689104  0.62394528  0.27385549    -0.02800
C2512       C  0.65020742  0.62372645  0.23196399     0.04000
N2513       N  0.66410397  0.61090337  0.21447654     0.66500
H2514       H  0.64096660  0.63445800  0.17472328     0.15400
H2515       H  0.62942020  0.63614084  0.32151663     0.15100
N2516       N  0.60484068  0.65804471  0.28164342     0.74200
O2517       O  0.65147955  0.58539352  0.20890257    -0.39200
O2518       O  0.68724510  0.62538638  0.19875576    -0.39200
O2519       O  0.57984469  0.64233880  0.28875605    -0.39900
O2520       O  0.61669839  0.68191715  0.29593334    -0.39900
C2521       C  0.62707398  0.65637058  0.48496884    -0.12200
C2522       C  0.62940917  0.65356903  0.02557055     0.04800
C2523       C  0.64433106  0.64137946  0.04014447    -0.07500
C2524       C  0.65594003  0.63092044  0.01323312    -0.08300
C2525       C  0.65131856  0.63151980  0.47154561    -0.02800
C2526       C  0.63763719  0.64516741  0.45752643     0.04000
N2527       N  0.63426459  0.64776869  0.41557980     0.66500
H2528       H  0.61637135  0.66656943  0.47380147     0.15400
H2529       H  0.66720183  0.62146133  0.02493662     0.15100
N2530       N  0.64769419  0.63931117  0.08221877     0.74200
O2531       O  0.61220731  0.63099860  0.39866794    -0.39200
O2532       O  0.65063550  0.66954560  0.39766842    -0.39200
O2533       O  0.63435825  0.61646291  0.09943235    -0.39900
O2534       O  0.66708088  0.65895614  0.10050719    -0.39900
C2535       C  0.63645457  0.50490810  0.04369107    -0.12200
C2536       C  0.62186124  0.97713189  0.02917799     0.04800
C2537       C  0.61505570  0.97470205  0.48727318    -0.07500
C2538       C  0.62698075  0.99752040  0.46212390    -0.08300
C2539       C  0.64714643  0.52483892  0.47636000    -0.02800
C2540       C  0.64875350  0.52744264  0.01776624     0.04000
N2541       N  0.66443160  0.55417404  0.03451517     0.66500
H2542       H  0.63960735  0.50809277  0.07573788     0.15400
H2543       H  0.62061484  0.99503855  0.43100869     0.15100
N2544       N  0.59470233  0.94904817  0.47135823     0.74200
O2545       O  0.65312386  0.56822196  0.04163296    -0.39200
O2546       O  0.68798200  0.56176237  0.04824747    -0.39200
O2547       O  0.57030825  0.94393052  0.46857769    -0.39900
O2548       O  0.60178367  0.93353508  0.45442833    -0.39900
C2549       C  0.64764363  0.98649258  0.23864504    -0.12200
C2550       C  0.62021068  0.97531739  0.22714776     0.04800
C2551       C  0.60454632  0.98600438  0.24397306    -0.07500
C2552       C  0.61589086  0.50345536  0.27689259    -0.08300
C2553       C  0.64437287  0.51807853  0.28234300    -0.02800
C2554       C  0.66056473  0.50981975  0.26048938     0.04000
N2555       N  0.68954714  0.52340066  0.26518570     0.66500
H2556       H  0.65985921  0.97830790  0.22630245     0.15400
H2557       H  0.60295419  0.50925895  0.29315893     0.15100
N2558       N  0.57622484  0.97453471  0.23458677     0.74200
O2559       O  0.69988636  0.51694236  0.29384915    -0.39200
O2560       O  0.70472634  0.53875327  0.23764813    -0.39200
O2561       O  0.55857929  0.95599663  0.25661515    -0.39900
O2562       O  0.56881412  0.98598670  0.20882428    -0.39900
C2563       C  0.50226379  0.88451743  0.22929166    -0.12200
C2564       C  0.51634197  0.87046849  0.22069112     0.04800
C2565       C  0.50768809  0.84474867  0.23873566    -0.07500
C2566       C  0.98967371  0.83693717  0.26806983    -0.08300
C2567       C  0.97353064  0.84934331  0.27204582    -0.02800
C2568       C  0.97943594  0.87237337  0.24834797     0.04000
N2569       N  0.96299718  0.88513216  0.25039409     0.66500
H2570       H  0.50867850  0.90432348  0.21585839     0.15400
H2571       H  0.98525161  0.81914272  0.28598932     0.15100
N2572       N  0.52060772  0.82909455  0.22938453     0.74200
O2573       O  0.97087613  0.90637536  0.27134072    -0.39200
O2574       O  0.94376921  0.87843657  0.22563125    -0.39200
O2575       O  0.53250270  0.82331372  0.25660625    -0.39900
O2576       O  0.51695470  0.81798142  0.19540323    -0.39900
C2577       C  0.52167083  0.86791942  0.48453014    -0.12200
C2578       C  0.51857585  0.87222569  0.02672922     0.04800
C2579       C  0.99339822  0.86507562  0.03726998    -0.07500
C2580       C  0.97143285  0.85371315  0.01036800    -0.08300
C2581       C  0.97573444  0.85162519  0.46816886    -0.02800
C2582       C  0.49988985  0.85672694  0.45727352     0.04000
N2583       N  0.50488201  0.85252081  0.41662705     0.66500
H2584       H  0.54196168  0.87368488  0.47392961     0.15400
H2585       H  0.95114289  0.84770809  0.02125294     0.15100
N2586       N  0.98830122  0.86791691  0.07844380     0.74200
O2587       O  0.51131777  0.87136101  0.39122103    -0.39200
O2588       O  0.01285591  0.84256869  0.39991501    -0.39200
O2589       O  0.98256980  0.88604959  0.08860361    -0.39900
O2590       O  0.98599687  0.85014911  0.10362599    -0.39900
C2591       C  0.57353417  0.77495202  0.09279970    -0.12200
C2592       C  0.58099280  0.76632907  0.12785977     0.04800
C2593       C  0.58492323  0.78140944  0.16366903    -0.07500
C2594       C  0.58350747  0.80541212  0.16288654    -0.08300
C2595       C  0.57853582  0.81532257  0.12709969    -0.02800
C2596       C  0.57211443  0.79909877  0.09219856     0.04000
N2597       N  0.56436331  0.80693581  0.05584414     0.66500
H2598       H  0.56957234  0.76339551  0.06527941     0.15400
H2599       H  0.58816906  0.81725117  0.19025512     0.15100
N2600       N  0.59221105  0.77387567  0.20073735     0.74200
O2601       O  0.58045678  0.81512151  0.02637445    -0.39200
O2602       O  0.54010774  0.80194352  0.05130076    -0.39200
O2603       O  0.61707733  0.78414196  0.21005253    -0.39900
O2604       O  0.57423850  0.76191452  0.22726445    -0.39900
C2605       C  0.87293180  0.98113903  0.24647270    -0.12200
C2606       C  0.84963275  0.97616420  0.22466820     0.04800
C2607       C  0.83744329  0.99230256  0.23210732    -0.07500
C2608       C  0.84909468  0.01350147  0.26031077    -0.08300
C2609       C  0.87388564  0.51942296  0.28096725    -0.02800
C2610       C  0.88494840  0.50199828  0.27475436     0.04000
N2611       N  0.90839406  0.50539394  0.29639629     0.66500
H2612       H  0.88185873  0.46796657  0.24165874     0.15400
H2613       H  0.83991643  0.02623613  0.26481874     0.15100
N2614       N  0.81399285  0.98821338  0.20995537     0.74200
O2615       O  0.90575086  0.49755635  0.33239619    -0.39200
O2616       O  0.92937645  0.50951141  0.27731032    -0.39200
O2617       O  0.79094928  0.97737252  0.22671403    -0.39900
O2618       O  0.81685130  0.99841824  0.17538962    -0.39900
C2619       C  0.87912153  0.99194205  0.02176122    -0.12200
C2620       C  0.85077376  0.97765078  0.02773315     0.04800
C2621       C  0.83439053  0.98587098  0.00649105    -0.07500
C2622       C  0.84696187  0.51023439  0.48456237    -0.08300
C2623       C  0.87489667  0.52259413  0.47561327    -0.02800
C2624       C  0.89057770  0.51207671  0.49330952     0.04000
N2625       N  0.91909338  0.52388548  0.48530386     0.66500
H2626       H  0.89201345  0.98583670  0.03770560     0.15400
H2627       H  0.83456610  0.51786638  0.47097497     0.15100
N2628       N  0.80553860  0.97225756  0.01210450     0.74200
O2629       O  0.93645408  0.04398342  0.50295944    -0.39200
O2630       O  0.92744862  0.51128465  0.46346800    -0.39200
O2631       O  0.79358511  0.47847314  0.03666466    -0.39900
O2632       O  0.79004003  0.95529536  0.98625067    -0.39900
C2633       C  0.83342108  0.84656116  0.01323131    -0.12200
C2634       C  0.84944768  0.87387315  0.02529190     0.04800
C2635       C  0.87676325  0.88882323  0.01178678    -0.07500
C2636       C  0.88673299  0.87849084  0.48130201    -0.08300
C2637       C  0.87147605  0.85076950  0.47055293    -0.02800
C2638       C  0.84468981  0.83518821  0.48570490     0.04000
N2639       N  0.82797828  0.80714835  0.47535249     0.66500
H2640       H  0.81259806  0.83460037  0.02374506     0.15400
H2641       H  0.90724383  0.89104909  0.46991399     0.15100
N2642       N  0.89407072  0.91682163  0.02262393     0.74200
O2643       O  0.82734257  0.78903771  0.49836275    -0.39200
O2644       O  0.80980778  0.80063393  0.44882151    -0.39200
O2645       O  0.91393447  0.92323574  0.04607517    -0.39900
O2646       O  0.89215478  0.93532881  0.00401375    -0.39900
C2647       C  0.84497143  0.87282060  0.26223596    -0.12200
C2648       C  0.84968100  0.87292393  0.22085767     0.04800
C2649       C  0.86517564  0.86113166  0.20698549    -0.07500
C2650       C  0.87551458  0.84963642  0.23436034    -0.08300
C2651       C  0.87139975  0.85023015  0.27574348    -0.02800
C2652       C  0.85588749  0.86191404  0.28963183     0.04000
N2653       N  0.85059984  0.86240882  0.33140712     0.66500
H2654       H  0.83325778  0.88184818  0.27358708     0.15400
H2655       H  0.88741061  0.84075966  0.22318892     0.15100
N2656       N  0.87046437  0.86045283  0.16523882     0.74200
O2657       O  0.86477568  0.88390286  0.35143795    -0.39200
O2658       O  0.82925987  0.84311093  0.34658831    -0.39200
O2659       O  0.89369554  0.87696319  0.15130487    -0.39900
O2660       O  0.85371617  0.84066319  0.14401316    -0.39900
C2661       C  0.71932944  0.91790465  0.15909305    -0.12200
C2662       C  0.73065298  0.91679940  0.12205642     0.04800
C2663       C  0.71762942  0.91834097  0.08657012    -0.07500
C2664       C  0.69298000  0.91871012  0.08885260    -0.08300
C2665       C  0.68036934  0.91720161  0.12584595    -0.02800
C2666       C  0.69460213  0.91806880  0.16134092     0.04000
N2667       N  0.68386384  0.91803029  0.20010322     0.66500
H2668       H  0.72912838  0.91753521  0.18689031     0.15400
H2669       H  0.68291164  0.91857189  0.06107585     0.15100
N2670       N  0.72809967  0.91799199  0.04775180     0.74200
O2671       O  0.67076680  0.89582119  0.21902609    -0.39200
O2672       O  0.69185408  0.94036391  0.21826139    -0.39200
O2673       O  0.72265023  0.89541147  0.03228273    -0.39900
O2674       O  0.73673595  0.93885093  0.02567036    -0.39900
C2675       C  0.72191381  0.80087349  0.09524228    -0.12200
C2676       C  0.73124757  0.81656965  0.13044465     0.04800
C2677       C  0.71652848  0.80550261  0.16642809    -0.07500
C2678       C  0.69244738  0.78015930  0.16604362    -0.08300
C2679       C  0.68217245  0.76539983  0.13033034    -0.02800
C2680       C  0.69785123  0.77536297  0.09492078     0.04000
N2681       N  0.68949650  0.75994605  0.05837301     0.66500
H2682       H  0.73322153  0.80859264  0.06758827     0.15400
H2683       H  0.68069613  0.77302651  0.19344795     0.15100
N2684       N  0.72415158  0.82080212  0.20292383     0.74200
O2685       O  0.68952221  0.77142187  0.02581645    -0.39200
O2686       O  0.68360464  0.73519878  0.05815898    -0.39200
O2687       O  0.71601219  0.83762549  0.20970143    -0.39900
O2688       O  0.73513915  0.81440903  0.23075388    -0.39900
Fe2689     Fe  0.85023123  0.92441021  0.62426523     1.65800
Fe2690     Fe  0.79039332  0.89638315  0.67425043     1.73200
Fe2691     Fe  0.79024259  0.89589325  0.57216226     1.54400
O2692       O  0.81704705  0.93340921  0.54652521    -0.81600
O2693       O  0.76716084  0.85602518  0.65833661    -0.79900
O2694       O  0.85278647  0.95506707  0.58789744    -0.84100
O2695       O  0.85369843  0.90440727  0.57494499    -0.79000
O2696       O  0.76577002  0.91211287  0.58815261    -0.80800
O2697       O  0.81752571  0.88695362  0.70327816    -0.83500
C2698       C  0.83762166  0.88650865  0.55038167     0.97300
C2699       C  0.83929954  0.95437808  0.55691640     1.04700
O2700       O  0.81019402  0.90548420  0.62333952    -1.12500
O2701       O  0.81157660  0.93624356  0.69405047    -0.74900
O2702       O  0.85346470  0.94794058  0.67376201    -0.78400
O2703       O  0.81222083  0.87839121  0.54946369    -0.79100
C2704       C  0.83719413  0.95197808  0.69507479     0.96200
O2705       O  0.85079478  0.89488799  0.66043831    -0.77100
O2706       O  0.76011712  0.90388682  0.65342904    -0.82300
C2707       C  0.75449794  0.84506018  0.62602765     0.98800
C2708       C  0.75340119  0.91045318  0.62061110     1.04700
O2709       O  0.76064508  0.85755424  0.59248730    -0.77900
C2710       C  0.83828633  0.88509212  0.69318512     1.03000
Fe2711     Fe  0.56828259  0.92521466  0.62403982     1.65800
Fe2712     Fe  0.59837357  0.89421969  0.67457610     1.73200
Fe2713     Fe  0.59898350  0.89521807  0.57185064     1.54400
O2714       O  0.56110196  0.88129732  0.54645990    -0.81600
O2715       O  0.63758380  0.90568638  0.65668932    -0.79900
O2716       O  0.54182142  0.90177730  0.57896517    -0.84100
O2717       O  0.59450526  0.95401135  0.58330688    -0.79000
O2718       O  0.58633427  0.85549628  0.58893667    -0.80800
O2719       O  0.61335993  0.93235918  0.70010493    -0.83500
C2720       C  0.60929971  0.95367272  0.55493787     0.97300
C2721       C  0.54150437  0.88585753  0.55186986     1.04700
O2722       O  0.58863580  0.90499207  0.62346354    -1.12500
O2723       O  0.56050101  0.88084034  0.69981393    -0.74900
O2724       O  0.53983037  0.89897615  0.66471240    -0.78400
O2725       O  0.61262966  0.93344726  0.54759140    -0.79100
C2726       C  0.54010525  0.88395337  0.69292910     0.96200
O2727       O  0.59128223  0.95109003  0.66996989    -0.77100
O2728       O  0.58452174  0.85482831  0.65548961    -0.82300
C2729       C  0.65008304  0.90951351  0.62371669     0.98800
C2730       C  0.58175461  0.84296342  0.62209437     1.04700
O2731       O  0.63847876  0.90756082  0.59021707    -0.77900
C2732       C  0.60747744  0.95127185  0.69661469     1.03000
Fe2733     Fe  0.57428000  0.64783839  0.62529603     1.65800
Fe2734     Fe  0.60189334  0.70827882  0.57425997     1.73200
Fe2735     Fe  0.60164521  0.70764351  0.67670926     1.54400
O2736       O  0.56223253  0.68542702  0.69752934    -0.81600
O2737       O  0.63968668  0.73800720  0.59490265    -0.79900
O2738       O  0.54822868  0.64419379  0.67172401    -0.84100
O2739       O  0.60206655  0.64697415  0.66448215    -0.79000
O2740       O  0.59223088  0.73646511  0.65647392    -0.80800
O2741       O  0.62034100  0.68760916  0.55099718    -0.83500
C2742       C  0.61327086  0.66043308  0.69604189     0.97300
C2743       C  0.54491214  0.66018073  0.69502720     1.04700
O2744       O  0.59262245  0.68790180  0.62530332    -1.12500
O2745       O  0.56558821  0.68123025  0.54686871    -0.74900
O2746       O  0.54444707  0.64440405  0.58602577    -0.78400
O2747       O  0.61267359  0.68194378  0.70522964    -0.79100
C2748       C  0.54518752  0.65825639  0.55556541     0.96200
O2749       O  0.59803870  0.64622876  0.57894928    -0.77100
O2750       O  0.58428837  0.73133556  0.59108934    -0.82300
C2751       C  0.65270580  0.74376297  0.62788519     0.98800
C2752       C  0.58480393  0.74268270  0.62415567     1.04700
O2753       O  0.64180230  0.73189822  0.66062569    -0.77900
C2754       C  0.61523894  0.66307757  0.55411294     1.03000
Fe2755     Fe  0.92276974  0.85017448  0.87426196     1.65800
Fe2756     Fe  0.89357951  0.79014912  0.82433812     1.73200
Fe2757     Fe  0.89313888  0.79065078  0.92620099     1.54400
O2758       O  0.92969446  0.81847595  0.95365899    -0.81600
O2759       O  0.85309473  0.76733224  0.84017718    -0.79900
O2760       O  0.95361089  0.85166310  0.90948934    -0.84100
O2761       O  0.90304691  0.85369726  0.92444276    -0.79000
O2762       O  0.91054585  0.76710821  0.91105881    -0.80800
O2763       O  0.88463140  0.81780500  0.79563747    -0.83500
C2764       C  0.88336473  0.83741296  0.94664142     0.97300
C2765       C  0.95167311  0.83942052  0.94237444     1.04700
O2766       O  0.90311764  0.81022005  0.87496789    -1.12500
O2767       O  0.93330446  0.81094345  0.80407655    -0.74900
O2768       O  0.94551809  0.85314970  0.82382970    -0.78400
O2769       O  0.87435057  0.81184116  0.94630165    -0.79100
C2770       C  0.94895844  0.83659921  0.80217691     0.96200
O2771       O  0.89329018  0.85130204  0.83879108    -0.77100
O2772       O  0.90101341  0.75977399  0.84597877    -0.82300
C2773       C  0.84232500  0.75472200  0.87257233     0.98800
C2774       C  0.90850288  0.75410632  0.87897217     1.04700
O2775       O  0.85549605  0.76039422  0.90540008    -0.77900
C2776       C  0.88330922  0.83889918  0.80595366     1.03000
Fe2777     Fe  0.92604606  0.57094510  0.87593420     1.65800
Fe2778     Fe  0.89561924  0.60116200  0.92616288     1.73200
Fe2779     Fe  0.89588533  0.60104431  0.82428693     1.54400
O2780       O  0.93529677  0.61868867  0.80293646    -0.81600
O2781       O  0.85750799  0.59304070  0.90582265    -0.79900
O2782       O  0.94986705  0.59138383  0.82710212    -0.84100
O2783       O  0.89794054  0.54074264  0.83921072    -0.79000
O2784       O  0.90415533  0.63933505  0.84402515    -0.80800
O2785       O  0.87759755  0.56166637  0.94757243    -0.83500
C2786       C  0.88635115  0.54239446  0.80751036     0.97300
C2787       C  0.95240945  0.61027206  0.80373931     1.04700
O2788       O  0.90581228  0.59106660  0.87543527    -1.12500
O2789       O  0.93244131  0.61086524  0.95373873    -0.74900
O2790       O  0.95607156  0.59950940  0.91228350    -0.78400
O2791       O  0.88593118  0.56400969  0.79765504    -0.79100
C2792       C  0.95427199  0.61097050  0.94388759     0.96200
O2793       O  0.90546929  0.54732544  0.92513520    -0.77100
O2794       O  0.91224920  0.64169954  0.90961230    -0.82300
C2795       C  0.84452493  0.58610133  0.87280310     0.98800
C2796       C  0.91101976  0.65257238  0.87680129     1.04700
O2797       O  0.85547881  0.58457740  0.84043681    -0.77900
C2798       C  0.88632376  0.54481222  0.94777662     1.03000
Fe2799     Fe  0.64553154  0.57470531  0.87564933     1.65800
Fe2800     Fe  0.70668750  0.60261165  0.92525091     1.73200
Fe2801     Fe  0.70453857  0.59915548  0.82261332     1.54400
O2802       O  0.68095547  0.55915527  0.80430502    -0.81600
O2803       O  0.73541506  0.64001488  0.90242666    -0.79900
O2804       O  0.64024852  0.54700245  0.83066133    -0.84100
O2805       O  0.64488447  0.60167383  0.83463729    -0.79000
O2806       O  0.73329510  0.58964684  0.84289990    -0.80800
O2807       O  0.68588355  0.62123763  0.94868160    -0.83500
C2808       C  0.65801471  0.61158527  0.80249304     0.97300
C2809       C  0.65550349  0.54276867  0.80719713     1.04700
O2810       O  0.68560154  0.59209865  0.87465854    -1.12500
O2811       O  0.68023991  0.56655043  0.95413855    -0.74900
O2812       O  0.64198317  0.54615958  0.91768112    -0.78400
O2813       O  0.67903582  0.61013724  0.79329741    -0.79100
C2814       C  0.65636240  0.54681874  0.94753704     0.96200
O2815       O  0.64489657  0.60005543  0.91983365    -0.77100
O2816       O  0.73077120  0.58560711  0.90910958    -0.82300
C2817       C  0.74177916  0.65186716  0.86847692     0.98800
C2818       C  0.74115815  0.58458527  0.87582890     1.04700
O2819       O  0.73014680  0.63982588  0.83611147    -0.77900
C2820       C  0.66169422  0.61703755  0.94479532     1.03000
C2821       C  0.77946677  0.58464906  0.83842809    -0.12200
C2822       C  0.76479736  0.57948199  0.87455749     0.04800
C2823       C  0.77515526  0.57294367  0.90895523    -0.07500
C2824       C  0.80056318  0.57399670  0.90742080    -0.08300
C2825       C  0.81600006  0.58107770  0.87191906    -0.02800
C2826       C  0.80473558  0.58565832  0.83685326     0.04000
N2827       N  0.81972790  0.59383349  0.80013494     0.66500
H2828       H  0.77218494  0.58965384  0.81137535     0.15400
H2829       H  0.80851426  0.56979632  0.93449446     0.15100
N2830       N  0.76037561  0.56547522  0.94580587     0.74200
O2831       O  0.81390650  0.57677141  0.77215010    -0.39200
O2832       O  0.83786101  0.61844382  0.79489350    -0.39200
O2833       O  0.74295945  0.54077034  0.95220104    -0.39900
O2834       O  0.76798744  0.58240578  0.97428791    -0.39900
C2835       C  0.80433765  0.71736913  0.83434219    -0.12200
C2836       C  0.81410315  0.73108299  0.87107342     0.04800
C2837       C  0.79763085  0.72019029  0.90558890    -0.07500
C2838       C  0.77315225  0.69535063  0.90312058    -0.08300
C2839       C  0.76463307  0.68051076  0.86717146    -0.02800
C2840       C  0.78001949  0.69233029  0.83209781     0.04000
N2841       N  0.77246858  0.67835597  0.79451143     0.66500
H2842       H  0.81641659  0.72526350  0.80735788     0.15400
H2843       H  0.76131318  0.68706001  0.93022812     0.15100
N2844       N  0.80513820  0.73374162  0.94353840     0.74200
O2845       O  0.75861236  0.68347165  0.76979704    -0.39200
O2846       O  0.78330089  0.66451030  0.78347529    -0.39200
O2847       O  0.78916783  0.74048288  0.95975941    -0.39900
O2848       O  0.82201948  0.73111557  0.96534657    -0.39900
C2849       C  0.91803398  0.72063832  0.84351568    -0.12200
C2850       C  0.91380041  0.73063186  0.87983014     0.04800
C2851       C  0.91221869  0.71635668  0.91559258    -0.07500
C2852       C  0.91333286  0.69205362  0.91408762    -0.08300
C2853       C  0.91568909  0.68107979  0.87746116    -0.02800
C2854       C  0.91904228  0.69626528  0.84200936     0.04000
N2855       N  0.92299654  0.68705971  0.80402785     0.66500
H2856       H  0.91985404  0.73141609  0.81573670     0.15400
H2857       H  0.91064249  0.68088866  0.94175334     0.15100
N2858       N  0.90717354  0.72487123  0.95339883     0.74200
O2859       O  0.90334013  0.67584951  0.77964454    -0.39200
O2860       O  0.94688264  0.69440629  0.79223528    -0.39200
O2861       O  0.88295693  0.71517025  0.96556444    -0.39900
O2862       O  0.92672893  0.73809595  0.97733043    -0.39900
C2863       C  0.97436941  0.62998566  0.51267648    -0.12200
C2864       C  0.97814007  0.62427003  0.97117358     0.04800
C2865       C  0.50582888  0.63688078  0.95706723    -0.07500
C2866       C  0.52736703  0.64888036  0.98464000    -0.08300
C2867       C  0.52189342  0.64671924  0.52781319    -0.02800
C2868       C  0.99596377  0.64161905  0.54024711     0.04000
N2869       N  0.99085671  0.64696764  0.58027732     0.66500
H2870       H  0.95407537  0.62451341  0.52286061     0.15400
H2871       H  0.54815435  0.65771266  0.97389085     0.15100
N2872       N  0.51202576  0.63703252  0.91551930     0.74200
O2873       O  0.99917674  0.67127499  0.59124230    -0.39200
O2874       O  0.97480448  0.62747914  0.60254687    -0.39200
O2875       O  0.51854448  0.65810222  0.89469191    -0.39900
O2876       O  0.51566922  0.61826052  0.90164715    -0.39900
C2877       C  0.48878807  0.65237177  0.76713458    -0.12200
C2878       C  0.97613637  0.62280126  0.77625385     0.04800
C2879       C  0.98947328  0.60852779  0.76343538    -0.07500
C2880       C  0.01119680  0.62076805  0.73654152    -0.08300
C2881       C  0.52024578  0.64842128  0.72101730    -0.02800
C2882       C  0.51135547  0.66467672  0.74135813     0.04000
N2883       N  0.52477427  0.69362628  0.73613785     0.66500
H2884       H  0.48236326  0.66507926  0.78273380     0.15400
H2885       H  0.02122847  0.60947818  0.72748585     0.15100
N2886       N  0.98060008  0.58113172  0.77599520     0.74200
O2887       O  0.51901686  0.70349719  0.70610762    -0.39200
O2888       O  0.53797570  0.70904011  0.76497851    -0.39200
O2889       O  0.96671389  0.56172512  0.75217480    -0.39900
O2890       O  0.99168823  0.57696995  0.80606408    -0.39900
C2891       C  0.63562819  0.63246333  0.70795564    -0.12200
C2892       C  0.62703493  0.65017846  0.72331488     0.04800
C2893       C  0.63029773  0.65626476  0.76479240    -0.07500
C2894       C  0.64047373  0.64349077  0.79001079    -0.08300
C2895       C  0.64830401  0.62528330  0.77466083    -0.02800
C2896       C  0.64630779  0.62015273  0.73312218     0.04000
N2897       N  0.65335970  0.60113396  0.71638199     0.66500
H2898       H  0.63346165  0.62758813  0.67636609     0.15400
H2899       H  0.64232313  0.64786042  0.82175135     0.15100
N2900       N  0.62263767  0.67465911  0.78212840     0.74200
O2901       O  0.63699066  0.57581046  0.71949297    -0.39200
O2902       O  0.67359829  0.60952981  0.69324182    -0.39200
O2903       O  0.60043958  0.66529679  0.80100139    -0.39900
O2904       O  0.64008276  0.69971555  0.78494942    -0.39900
C2905       C  0.62653292  0.65519137  0.98402984    -0.12200
C2906       C  0.62908809  0.65341870  0.52644777     0.04800
C2907       C  0.64279857  0.63983717  0.54047285    -0.07500
C2908       C  0.65406847  0.62935085  0.51305092    -0.08300
C2909       C  0.65204667  0.63140610  0.97171101    -0.02800
C2910       C  0.63720182  0.64376243  0.95713407     0.04000
N2911       N  0.63290647  0.64500798  0.91512374     0.66500
H2912       H  0.61498453  0.66439605  0.97245070     0.15400
H2913       H  0.66437455  0.61876729  0.52426304     0.15100
N2914       N  0.64558808  0.63671040  0.58245879     0.74200
O2915       O  0.61205632  0.62581526  0.89864842    -0.39200
O2916       O  0.64641383  0.66739719  0.89680193    -0.39200
O2917       O  0.63374959  0.61317728  0.59795592    -0.39900
O2918       O  0.66289480  0.65678793  0.60268869    -0.39900
C2919       C  0.64391568  0.50373371  0.54163205    -0.12200
C2920       C  0.62241153  0.97739324  0.52802774     0.04800
C2921       C  0.61673122  0.97352551  0.98762941    -0.07500
C2922       C  0.62829148  0.99615124  0.96200811    -0.08300
C2923       C  0.64458129  0.52359409  0.97590841    -0.02800
C2924       C  0.65638328  0.52668219  0.51638980     0.04000
N2925       N  0.67765199  0.55182132  0.53232337     0.66500
H2926       H  0.65092076  0.50532268  0.57231573     0.15400
H2927       H  0.62387654  0.99304633  0.93019720     0.15100
N2928       N  0.59879223  0.94710714  0.97128353     0.74200
O2929       O  0.67187891  0.56887159  0.54733543    -0.39200
O2930       O  0.70123925  0.55499779  0.53719397    -0.39200
O2931       O  0.57398854  0.93977410  0.96548333    -0.39900
O2932       O  0.60845453  0.93287446  0.95737084    -0.39900
C2933       C  0.64727205  0.98610232  0.73548430    -0.12200
C2934       C  0.61955948  0.97417463  0.72544916     0.04800
C2935       C  0.60347694  0.98366894  0.74425354    -0.07500
C2936       C  0.61679345  0.51042854  0.76443353    -0.08300
C2937       C  0.64274026  0.51855405  0.78053754    -0.02800
C2938       C  0.65659762  0.50467081  0.76846833     0.04000
N2939       N  0.68253413  0.51140575  0.78524133     0.66500
H2940       H  0.65976771  0.97874942  0.72161782     0.15400
H2941       H  0.60589711  0.52093134  0.77313642     0.15100
N2942       N  0.57487454  0.97125225  0.73628633     0.74200
O2943       O  0.68381873  0.50337709  0.82011338    -0.39200
O2944       O  0.70350452  0.52183866  0.76336433    -0.39200
O2945       O  0.55814443  0.95206549  0.75838873    -0.39900
O2946       O  0.56624327  0.98215369  0.71145384    -0.39900
C2947       C  0.49923822  0.88222317  0.72374638    -0.12200
C2948       C  0.51607497  0.87053686  0.71984636     0.04800
C2949       C  0.51034350  0.84733267  0.74335571    -0.07500
C2950       C  0.98774737  0.83536003  0.76849034    -0.08300
C2951       C  0.97175260  0.84786661  0.77324345    -0.02800
C2952       C  0.97765371  0.87107692  0.74996033     0.04000
N2953       N  0.96131268  0.88391721  0.75272228     0.66500
H2954       H  0.50326607  0.90009438  0.70632174     0.15400
H2955       H  0.98327910  0.81737622  0.78596454     0.15100
N2956       N  0.52666818  0.83448044  0.74060661     0.74200
O2957       O  0.96872173  0.90428859  0.77544242    -0.39200
O2958       O  0.94247945  0.87807675  0.72754056    -0.39200
O2959       O  0.54366751  0.83818181  0.76795341    -0.39900
O2960       O  0.52114967  0.81628787  0.71448889    -0.39900
C2961       C  0.52279749  0.86826504  0.98634018    -0.12200
C2962       C  0.51763457  0.87248887  0.52472957     0.04800
C2963       C  0.99251880  0.86327951  0.53680029    -0.07500
C2964       C  0.97095788  0.85241851  0.50928041    -0.08300
C2965       C  0.97543756  0.85055577  0.96966956    -0.02800
C2966       C  0.50116813  0.85771787  0.95872066     0.04000
N2967       N  0.50635239  0.85407485  0.91792919     0.66500
H2968       H  0.54312617  0.87403956  0.97590774     0.15400
H2969       H  0.95036124  0.84498684  0.52007063     0.15100
N2970       N  0.98668803  0.86384771  0.57834494     0.74200
O2971       O  0.51426872  0.87371624  0.89357384    -0.39200
O2972       O  0.00867480  0.83471722  0.90438434    -0.39200
O2973       O  0.98038717  0.88111292  0.59087241    -0.39900
O2974       O  0.98398845  0.84476835  0.60115550    -0.39900
C2975       C  0.57277054  0.77451109  0.58865367    -0.12200
C2976       C  0.57807795  0.76512342  0.62489004     0.04800
C2977       C  0.57910038  0.77904726  0.66077017    -0.07500
C2978       C  0.57751675  0.80294825  0.65920900    -0.08300
C2979       C  0.57534988  0.81399954  0.62258943    -0.02800
C2980       C  0.57118299  0.79858037  0.58725160     0.04000
N2981       N  0.56573314  0.80720104  0.54967766     0.66500
H2982       H  0.57082933  0.76373651  0.56089519     0.15400
H2983       H  0.57999006  0.81388366  0.68699267     0.15100
N2984       N  0.58339376  0.77039111  0.69909619     0.74200
O2985       O  0.58361353  0.81601140  0.52252092    -0.39200
O2986       O  0.54177455  0.80199224  0.54150128    -0.39200
O2987       O  0.60749198  0.77895789  0.71126358    -0.39900
O2988       O  0.56420328  0.76092878  0.72421745    -0.39900
C2989       C  0.87342607  0.98126375  0.74296176    -0.12200
C2990       C  0.84903626  0.97516481  0.72339645     0.04800
C2991       C  0.83637787  0.99070840  0.73223971    -0.07500
C2992       C  0.84848825  0.01218467  0.75995926    -0.08300
C2993       C  0.87311252  0.51854257  0.78028357    -0.02800
C2994       C  0.88325265  0.50024475  0.77547847     0.04000
N2995       N  0.90568758  0.50267065  0.79874147     0.66500
H2996       H  0.87966084  0.46569830  0.74328170     0.15400
H2997       H  0.83888277  0.02439345  0.76575924     0.15100
N2998       N  0.81200337  0.98581134  0.71195397     0.74200
O2999       O  0.90133208  0.49244926  0.83346909    -0.39200
O3000       O  0.92786054  0.50874613  0.78151947    -0.39200
O3001       O  0.79001751  0.97698174  0.73123960    -0.39900
O3002       O  0.81321182  0.99360645  0.67614581    -0.39900
C3003       C  0.87855065  0.99057425  0.52038886    -0.12200
C3004       C  0.85095148  0.97860010  0.53071577     0.04800
C3005       C  0.83507601  0.98926059  0.51449954    -0.07500
C3006       C  0.84566291  0.50705101  0.98126271    -0.08300
C3007       C  0.87404849  0.52149110  0.97581992    -0.02800
C3008       C  0.89042534  0.51329790  0.99713938     0.04000
N3009       N  0.91949177  0.52789206  0.99343801     0.66500
H3010       H  0.89094433  0.98247813  0.53254683     0.15400
H3011       H  0.83284841  0.51306828  0.96491261     0.15100
N3012       N  0.80686464  0.97755868  0.52427273     0.74200
O3013       O  0.93419442  0.05145254  0.00822216    -0.39200
O3014       O  0.93147058  0.51668526  0.97673961    -0.39200
O3015       O  0.79765792  0.48389460  0.54639219    -0.39900
O3016       O  0.78906577  0.96248887  0.49903492    -0.39900
C3017       C  0.83380288  0.84724948  0.51090307    -0.12200
C3018       C  0.84921982  0.87477206  0.52199733     0.04800
C3019       C  0.87591421  0.89054920  0.50657443    -0.07500
C3020       C  0.88719602  0.87649163  0.98640329    -0.08300
C3021       C  0.87118933  0.84917904  0.97420323    -0.02800
C3022       C  0.84412520  0.83407618  0.98847156     0.04000
N3023       N  0.82718730  0.80599938  0.97831349     0.66500
H3024       H  0.81330029  0.83483334  0.52241264     0.15400
H3025       H  0.90810834  0.88848466  0.97626043     0.15100
N3026       N  0.89186412  0.91917184  0.51473130     0.74200
O3027       O  0.82595375  0.78788223  0.00190066    -0.39200
O3028       O  0.80966929  0.79948706  0.95077153    -0.39200
O3029       O  0.91342530  0.92814455  0.53529062    -0.39900
O3030       O  0.88690550  0.93573264  0.49603799    -0.39900
C3031       C  0.84602507  0.87433761  0.76301025    -0.12200
C3032       C  0.84872502  0.87193654  0.72153201     0.04800
C3033       C  0.86233019  0.85805179  0.70826736    -0.07500
C3034       C  0.87279324  0.84696533  0.73623773    -0.08300
C3035       C  0.87060687  0.84986421  0.77770332    -0.02800
C3036       C  0.85708391  0.86383223  0.79098869     0.04000
N3037       N  0.85413357  0.86731484  0.83276283     0.66500
H3038       H  0.83587844  0.88510969  0.77389900     0.15400
H3039       H  0.88318555  0.83644100  0.72533305     0.15100
N3040       N  0.86534637  0.85462643  0.66649823     0.74200
O3041       O  0.87124298  0.88904724  0.85008612    -0.39200
O3042       O  0.83218180  0.85112623  0.85033419    -0.39200
O3043       O  0.88839136  0.86836876  0.65014492    -0.39900
O3044       O  0.84626848  0.83503176  0.64767967    -0.39900
C3045       C  0.71705867  0.91430696  0.65759979    -0.12200
C3046       C  0.72935095  0.91488534  0.62068160     0.04800
C3047       C  0.71686439  0.91734658  0.58515439    -0.07500
C3048       C  0.69213917  0.91758392  0.58728323    -0.08300
C3049       C  0.67878024  0.91472993  0.62398373    -0.02800
C3050       C  0.69212317  0.91400836  0.65961074     0.04000
N3051       N  0.68011227  0.91150618  0.69816319     0.66500
H3052       H  0.72621842  0.91287067  0.68543610     0.15400
H3053       H  0.68260748  0.91844995  0.55948982     0.15100
N3054       N  0.72791164  0.91809480  0.54634644     0.74200
O3055       O  0.66559071  0.88810702  0.71330638    -0.39200
O3056       O  0.68794417  0.93245269  0.71977439    -0.39200
O3057       O  0.72488742  0.89623654  0.53122956    -0.39900
O3058       O  0.73387837  0.93826236  0.52372458    -0.39900
C3059       C  0.72236808  0.80005722  0.59438540    -0.12200
C3060       C  0.73043902  0.81722214  0.62815387     0.04800
C3061       C  0.71396578  0.80841062  0.66289988    -0.07500
C3062       C  0.68989204  0.78323804  0.66308102    -0.08300
C3063       C  0.68112597  0.76669865  0.62880965    -0.02800
C3064       C  0.69803336  0.77477373  0.59453256     0.04000
N3065       N  0.69074941  0.75754099  0.55984389     0.66500
H3066       H  0.73493575  0.80638370  0.56770084     0.15400
H3067       H  0.67689659  0.77767825  0.68929224     0.15100
N3068       N  0.71964557  0.82606872  0.69665117     0.74200
O3069       O  0.69156286  0.76725282  0.52541603    -0.39200
O3070       O  0.68458896  0.73281308  0.56337890    -0.39200
O3071       O  0.71347180  0.84474904  0.69529786    -0.39900
O3072       O  0.72665448  0.82032571  0.72960412    -0.39900
loop_ 
_geom_bond_atom_site_label_1 
_geom_bond_atom_site_label_2 
_geom_bond_distance 
_geom_bond_site_symmetry_2 
_ccdc_geom_bond_type 
Fe1          O17   2.061       .  S
Fe1           O7   2.052       .  S
Fe1          O14   2.068       .  S
Fe1           O6   2.061       .  S
Fe1          O12   1.966       .  S
Fe2           O5   2.058       .  S
Fe2           O9   2.082       .  S
Fe2          O13   2.061       .  S
Fe2          O18   2.066       .  S
Fe2          O12   1.964       .  S
Fe3          O21   2.088       .  S
Fe3           O8   2.071       .  S
Fe3          O15   2.074       .  S
Fe3           O4   2.084       .  S
Fe3          O12   1.965       .  S
O4           C11   1.274       .  A
O5           C19   1.270       .  A
O6           C11   1.272       .  A
O7           C10   1.264       .  A
O8           C20   1.270       .  A
O9           C22   1.272       .  A
C10          O15   1.271       .  A
C10         C330   1.486       .  S
C11         C316   1.482       .  S
O13          C16   1.267       .  A
O14          C16   1.268       .  A
C16         C302   1.475       .  S
O17          C22   1.269       .  A
O18          C20   1.270       .  A
C19          O21   1.275       .  A
C19         C372   1.488       .  S
C20         C358   1.495       .  S
C22         C344   1.482       .  S
Fe23         O39   2.072       .  S
Fe23         O29   2.073       .  S
Fe23         O36   2.063       .  S
Fe23         O28   2.071       .  S
Fe23         O34   1.977       .  S
Fe24         O27   2.070       .  S
Fe24         O31   2.063       .  S
Fe24         O35   2.070       .  S
Fe24         O40   2.055       .  S
Fe24         O34   1.976       .  S
Fe25         O43   2.068       .  S
Fe25         O30   2.064       .  S
Fe25         O37   2.059       .  S
Fe25         O26   2.059       .  S
Fe25         O34   1.982       .  S
O26          C33   1.268       .  A
O27          C41   1.269       .  A
O28          C33   1.270       .  A
O29          C32   1.270       .  A
O30          C42   1.267       .  A
O31          C44   1.268       .  A
C32          O37   1.267       .  A
C32         C232   1.473       .  S
C33         C274   1.479       .  S
O35          C38   1.269       .  A
O36          C38   1.270       .  A
C38         C260   1.486       .  S
O39          C44   1.270       .  A
O40          C42   1.268       .  A
C41          O43   1.271       .  A
C41         C361   1.495       .  S
C42         C291   1.488       .  S
C44         C246   1.479       .  S
Fe45         O61   2.080       .  S
Fe45         O51   2.061       .  S
Fe45         O58   2.067       .  S
Fe45         O50   2.073       .  S
Fe45         O56   1.967       .  S
Fe46         O49   2.073       .  S
Fe46         O53   2.064       .  S
Fe46         O57   2.069       .  S
Fe46         O62   2.066       .  S
Fe46         O56   1.974       .  S
Fe47         O65   2.064       .  S
Fe47         O52   2.060       .  S
Fe47         O59   2.071       .  S
Fe47         O48   2.062       .  S
Fe47         O56   1.975       .  S
O48          C55   1.267       .  A
O49          C63   1.271       .  A
O50          C55   1.271       .  A
O51          C54   1.269       .  A
O52          C64   1.267       .  A
O53          C66   1.268       .  A
C54          O59   1.269       .  A
C54         C204   1.483       .  S
C55         C193   1.487       .  S
O57          C60   1.269       .  A
O58          C60   1.269       .  A
C60         C179   1.474       .  S
O61          C66   1.271       .  A
O62          C64   1.270       .  A
C63          O65   1.270       .  A
C63         C375   1.486       .  S
C64         C288   1.490       .  S
C66         C218   1.477       .  S
Fe67         O83   2.057       .  S
Fe67         O73   2.074       .  S
Fe67         O80   2.073       .  S
Fe67         O72   2.057       .  S
Fe67         O78   1.954       .  S
Fe68         O71   2.060       .  S
Fe68         O75   2.088       .  S
Fe68         O79   2.063       .  S
Fe68         O84   2.078       .  S
Fe68         O78   1.954       .  S
Fe69         O87   2.077       .  S
Fe69         O74   2.065       .  S
Fe69         O81   2.062       .  S
Fe69         O70   2.085       .  S
Fe69         O78   1.956       .  S
O70          C77   1.275       .  A
O71          C85   1.270       .  A
O72          C77   1.270       .  A
O73          C76   1.270       .  A
O74          C86   1.270       .  A
O75          C88   1.275       .  A
C76          O81   1.267       .  A
C76         C333   1.484       .  S
C77         C277   1.481       .  S
O79          C82   1.267       .  A
O80          C82   1.269       .  A
C82         C263   1.478       .  S
O83          C88   1.270       .  A
O84          C86   1.273       .  A
C85          O87   1.271       .  A
C85         C148   1.486       .  S
C86         C162   1.492       .  S
C88         C347   1.485       .  S
Fe89        O105   2.068       .  S
Fe89         O95   2.052       .  S
Fe89        O102   2.056       .  S
Fe89         O94   2.064       .  S
Fe89        O100   1.965       .  S
Fe90         O93   2.075       .  S
Fe90         O97   2.064       .  S
Fe90        O101   2.077       .  S
Fe90        O106   2.069       .  S
Fe90        O100   1.964       .  S
Fe91        O109   2.064       .  S
Fe91         O96   2.073       .  S
Fe91        O103   2.076       .  S
Fe91         O92   2.065       .  S
Fe91        O100   1.964       .  S
O92          C99   1.269       .  A
O93         C107   1.271       .  A
O94          C99   1.268       .  A
O95          C98   1.267       .  A
O96         C108   1.271       .  A
O97         C110   1.270       .  A
C98         O103   1.272       .  A
C98         C305   1.481       .  S
C99         C190   1.478       .  S
O101        C104   1.272       .  A
O102        C104   1.267       .  A
C104        C176   1.490       .  S
O105        C110   1.269       .  A
O106        C108   1.272       .  A
C107        O109   1.268       .  A
C107        C137   1.496       .  S
C108        C165   1.491       .  S
C110        C319   1.483       .  S
Fe111       O127   2.071       .  S
Fe111       O117   2.055       .  S
Fe111       O124   2.060       .  S
Fe111       O116   2.077       .  S
Fe111       O122   1.967       .  S
Fe112       O115   2.068       .  S
Fe112       O119   2.071       .  S
Fe112       O123   2.073       .  S
Fe112       O128   2.070       .  S
Fe112       O122   1.973       .  S
Fe113       O131   2.058       .  S
Fe113       O118   2.068       .  S
Fe113       O125   2.078       .  S
Fe113       O114   2.058       .  S
Fe113       O122   1.976       .  S
O114        C121   1.267       .  A
O115        C129   1.273       .  A
O116        C121   1.272       .  A
O117        C120   1.267       .  A
O118        C130   1.269       .  A
O119        C132   1.269       .  A
C120        O125   1.270       .  A
C120        C207   1.478       .  S
C121        C249   1.485       .  S
O123        C126   1.271       .  A
O124        C126   1.271       .  A
C126        C235   1.483       .  S
O127        C132   1.268       .  A
O128        C130   1.269       .  A
C129        O131   1.269       .  A
C129        C151   1.482       .  S
C130        C134   1.496       .  S
C132        C221   1.484       .  S
C133        C134   1.408       .  A
C133        C138   1.402       .  A
C133        H140   1.084       .  S
C134        C135   1.416       .  A
C135        C136   1.403       .  A
C135        N142   1.429       .  S
C136        C137   1.408       .  A
C136        H141   1.084       .  S
C137        C138   1.416       .  A
C138        N139   1.430       .  S
N139        O143   1.262       .  A
N139        O144   1.262       .  A
N142        O146   1.262       .  A
N142        O145   1.262       .  A
C147        C148   1.407       .  A
C147        C152   1.400       .  A
C147        H154   1.084       .  S
C148        C149   1.416       .  A
C149        C150   1.399       .  A
C149        N156   1.429       .  S
C150        C151   1.401       .  A
C150        H155   1.084       .  S
C151        C152   1.413       .  A
C152        N153   1.429       .  S
N153        O157   1.262       .  A
N153        O158   1.262       .  A
N156        O160   1.262       .  A
N156        O159   1.262       .  A
C161        C162   1.406       .  A
C161        C166   1.401       .  A
C161        H168   1.084       .  S
C162        C163   1.416       .  A
C163        C164   1.402       .  A
C163        N170   1.429       .  S
C164        C165   1.406       .  A
C164        H169   1.083       .  S
C165        C166   1.415       .  A
C166        N167   1.429       .  S
N167        O171   1.262       .  A
N167        O172   1.262       .  A
N170        O174   1.262       .  A
N170        O173   1.262       .  A
C175        C180   1.398       .  A
C175        C560   1.406   1_554  A
C175        H182   1.084       .  S
C176        C559   1.410       .  A
C176       C1713   1.417       .  A
C177        C178   1.400       .  A
C177       C1712   1.414   1_455  A
C177        N184   1.429       .  S
C178        C563   1.402       .  A
C178        H183   1.084       .  S
C179        C562   1.402   1_554  A
C179       C1716   1.407   1_455  A
C180       C1715   1.408       .  A
C180        N181   1.429       .  S
N181        O185   1.262       .  A
N181        O186   1.262       .  A
N184        O188   1.262       .  A
N184        O187   1.262       .  A
C189        C194   1.403   1_655  A
C189       C1726   1.401       .  A
C189        H196   1.084       .  S
C190        C191   1.410       .  A
C190       C1725   1.402       .  A
C191        C192   1.395       .  A
C191        N198   1.428       .  S
C192       C1729   1.404       .  A
C192        H197   1.083       .  S
C193        C194   1.416       .  A
C193       C1728   1.404       .  A
C194        N195   1.427       .  S
N195        O199   1.262       .  A
N195        O200   1.262       .  A
N198        O202   1.262       .  A
N198        O201   1.261       .  A
C203        C204   1.405       .  A
C203        C208   1.401       .  A
C203        H210   1.079       .  S
C204        C205   1.414       .  A
C205        C206   1.400       .  A
C205        N212   1.429       .  S
C206        C207   1.402       .  A
C206        H211   1.079       .  S
C207        C208   1.410       .  A
C208        N209   1.429       .  S
N209        O213   1.262       .  A
N209        O214   1.262       .  A
N212        O216   1.262       .  A
N212        O215   1.262       .  A
C217        C222   1.403       .  A
C217        C602   1.401       .  A
C217        H224   1.084       .  S
C218        C219   1.407       .  A
C218        C601   1.404   1_554  A
C219        C220   1.403       .  A
C219        N226   1.428       .  S
C220        C605   1.406   1_554  A
C220        H225   1.084       .  S
C221        C222   1.414       .  A
C221        C604   1.406       .  A
C222        N223   1.429       .  S
N223        O227   1.262       .  A
N223        O228   1.262       .  A
N226        O230   1.262       .  A
N226        O229   1.262       .  A
C231        C236   1.403       .  A
C231       C1000   1.400   1_545  A
C231        H238   1.084       .  S
C232        C999   1.401       .  A
C232        C617   1.409   1_554  A
C233        C234   1.396       .  A
C233        C616   1.409       .  A
C233        N240   1.429       .  S
C234       C1003   1.403       .  A
C234        H239   1.084       .  S
C235       C1002   1.404   1_545  A
C235        C620   1.416       .  A
C236        C619   1.416   1_554  A
C236        N237   1.429       .  S
N237        O241   1.262       .  A
N237        O242   1.262       .  A
N240        O244   1.262       .  A
N240        O243   1.262       .  A
C245        C246   1.403       .  A
C245       C1018   1.404       .  A
C245        H252   1.084       .  S
C246        C247   1.410       .  A
C247       C1016   1.400       .  A
C247        N254   1.430       .  S
C248        C249   1.405       .  A
C248       C1015   1.398   1_545  A
C248        H253   1.084       .  S
C249        C250   1.415       .  A
C250       C1013   1.404   1_545  A
C250        N251   1.430       .  S
N251        O255   1.262       .  A
N251        O256   1.262       .  A
N254        O258   1.262       .  A
N254        O257   1.262       .  A
C259        C260   1.405   1_655  A
C259       C1800   1.398       .  A
C259        H266   1.084   1_655  S
C260        C261   1.416       .  A
C261       C1798   1.404   1_455  A
C261        N268   1.429       .  S
C262        C263   1.403       .  A
C262       C1797   1.404       .  A
C262        H267   1.084       .  S
C263        C264   1.411       .  A
C264       C1795   1.397       .  A
C264        N265   1.429       .  S
N265        O269   1.262       .  A
N265        O270   1.262       .  A
N268        O272   1.262       .  A
N268        O271   1.262       .  A
C273        C278   1.402       .  A
C273        C658   1.405       .  A
C273        H280   1.084       .  S
C274        C657   1.406   1_554  A
C274       C1811   1.410   1_455  A
C275        C276   1.400       .  A
C275       C1810   1.413       .  A
C275        N282   1.430       .  S
C276        C661   1.402   1_554  A
C276        H281   1.084       .  S
C277        C660   1.405       .  A
C277       C1814   1.412       .  A
C278       C1813   1.410   1_455  A
C278        N279   1.429       .  S
N279        O283   1.262       .  A
N279       O1820   1.262       .  A
N282        O286   1.262       .  A
N282        O285   1.262       .  A
O284       N1815   1.262       .  A
C287        C288   1.408       .  A
C287        C292   1.402       .  A
C287        H294   1.083       .  S
C288        C289   1.418       .  A
C289        C290   1.396       .  A
C289        N296   1.430       .  S
C290        C291   1.403       .  A
C290        H295   1.084       .  S
C291        C292   1.414       .  A
C292        N293   1.429       .  S
N293        O297   1.262       .  A
N293        O298   1.262       .  A
N296        O300   1.261       .  A
N296        O299   1.262       .  A
C301        C302   1.401       .  A
C301       C1074   1.398       .  A
C301       H1076   1.084       .  S
C302        C303   1.408       .  A
C303        C304   1.402       .  A
C303        N310   1.429       .  S
C304       C1073   1.406       .  A
C304        H309   1.084       .  S
C305        C306   1.417       .  A
C305       C1072   1.407       .  A
C306       C1069   1.398   1_545  A
C306        N307   1.433       .  S
N307        O311   1.262   1_545  A
N307        O312   1.262       .  A
H308       C1069   1.084       .  S
N310        O314   1.262       .  A
N310        O313   1.262       .  A
C315        C316   1.404       .  A
C315       C1472   1.401   1_554  A
C315        H322   1.084       .  S
C316        C317   1.411       .  A
C317       C1470   1.403   1_554  A
C317        N324   1.428       .  S
C318        C319   1.405       .  A
C318       C1469   1.402   1_545  A
C318        H323   1.084       .  S
C319        C320   1.415       .  A
C320       C1467   1.399   1_545  A
C320        N321   1.430       .  S
N321       O1093   1.262       .  A
N321        O326   1.262       .  A
N324        O328   1.262   1_554  A
N324       O1095   1.262       .  A
O325       N1089   1.262       .  A
O327       N1092   1.262       .  A
C329        C330   1.402       .  A
C329        C718   1.401   1_554  A
C329        H336   1.084       .  S
C330        C331   1.418       .  A
C331        C716   1.400   1_554  A
C331        N338   1.430       .  S
C332        C333   1.403       .  A
C332        C715   1.399       .  A
C332        H337   1.084       .  S
C333        C334   1.411       .  A
C334        C713   1.401       .  A
C334        N335   1.424       .  S
N335        O339   1.261       .  A
N335        O340   1.262       .  A
N338        O342   1.262       .  A
N338        O341   1.262       .  A
C343        C344   1.404       .  A
C343        C348   1.401       .  A
C343        H350   1.084       .  S
C344        C345   1.411       .  A
C345        C346   1.401       .  A
C345        N352   1.429       .  S
C346        C347   1.406       .  A
C346        H351   1.084       .  S
C347        C348   1.414       .  A
C348        N349   1.429       .  S
N349        O353   1.262       .  A
N349        O354   1.262       .  A
N352        O356   1.262       .  A
N352        O355   1.262       .  A
C357        C358   1.408       .  A
C357        C362   1.402       .  A
C357        H364   1.084       .  S
C358        C359   1.416       .  A
C359        C360   1.402       .  A
C359        N366   1.429       .  S
C360        C361   1.407       .  A
C360        H365   1.083       .  S
C361        C362   1.416       .  A
C362        N363   1.429       .  S
N363        O367   1.262       .  A
N363        O368   1.262       .  A
N366        O370   1.261       .  A
N366        O369   1.262       .  A
C371        C372   1.406       .  A
C371        C376   1.407       .  A
C371        H378   1.084       .  S
C372        C373   1.416       .  A
C373        C374   1.399       .  A
C373        N380   1.430       .  S
C374        C375   1.403       .  A
C374        H379   1.084       .  S
C375        C376   1.415       .  A
C376        N377   1.434       .  S
N377        O381   1.262       .  A
N377        O382   1.263       .  A
N380        O384   1.262       .  A
N380        O383   1.262       .  A
Fe385       O401   2.061       .  S
Fe385       O391   2.050       .  S
Fe385       O398   2.061       .  S
Fe385       O390   2.056       .  S
Fe385       O396   1.970       .  S
Fe386       O389   2.055       .  S
Fe386       O393   2.086       .  S
Fe386       O397   2.061       .  S
Fe386       O402   2.068       .  S
Fe386       O396   1.967       .  S
Fe387       O405   2.085       .  S
Fe387       O392   2.070       .  S
Fe387       O399   2.075       .  S
Fe387       O388   2.081       .  S
Fe387       O396   1.973       .  S
O388        C395   1.273       .  A
O389        C403   1.270       .  A
O390        C395   1.270       .  A
O391        C394   1.264       .  A
O392        C404   1.269       .  A
O393        C406   1.273       .  A
C394        O399   1.271       .  A
C394        C714   1.483       .  S
C395        C700   1.479       .  S
O397        C400   1.266       .  A
O398        C400   1.268       .  A
C400        C686   1.474       .  S
O401        C406   1.268       .  A
O402        C404   1.270       .  A
C403        O405   1.274       .  A
C403        C756   1.483       .  S
C404        C742   1.496       .  S
C406        C728   1.488       .  S
Fe407       O423   2.067       .  S
Fe407       O413   2.071       .  S
Fe407       O420   2.063       .  S
Fe407       O412   2.068       .  S
Fe407       O418   1.976       .  S
Fe408       O411   2.072       .  S
Fe408       O415   2.065       .  S
Fe408       O419   2.072       .  S
Fe408       O424   2.056       .  S
Fe408       O418   1.976       .  S
Fe409       O427   2.064       .  S
Fe409       O414   2.060       .  S
Fe409       O421   2.056       .  S
Fe409       O410   2.059       .  S
Fe409       O418   1.980       .  S
O410        C417   1.267       .  A
O411        C425   1.269       .  A
O412        C417   1.269       .  A
O413        C416   1.269       .  A
O414        C426   1.267       .  A
O415        C428   1.268       .  A
C416        O421   1.267       .  A
C416        C616   1.472       .  S
C417        C658   1.478       .  S
O419        C422   1.269       .  A
O420        C422   1.269       .  A
C422        C644   1.485       .  S
O423        C428   1.269       .  A
O424        C426   1.269       .  A
C425        O427   1.270       .  A
C425        C745   1.495       .  S
C426        C675   1.486       .  S
C428        C630   1.478       .  S
Fe429       O445   2.077       .  S
Fe429       O435   2.057       .  S
Fe429       O442   2.064       .  S
Fe429       O434   2.074       .  S
Fe429       O440   1.962       .  S
Fe430       O433   2.074       .  S
Fe430       O437   2.062       .  S
Fe430       O441   2.071       .  S
Fe430       O446   2.066       .  S
Fe430       O440   1.968       .  S
Fe431       O449   2.058       .  S
Fe431       O436   2.056       .  S
Fe431       O443   2.069       .  S
Fe431       O432   2.053       .  S
Fe431       O440   1.971       .  S
O432        C439   1.266       .  A
O433        C447   1.272       .  A
O434        C439   1.272       .  A
O435        C438   1.267       .  A
O436        C448   1.265       .  A
O437        C450   1.268       .  A
C438        O443   1.268       .  A
C438        C588   1.469       .  S
C439        C577   1.487       .  S
O441        C444   1.270       .  A
O442        C444   1.269       .  A
C444        C563   1.474       .  S
O445        C450   1.270       .  A
O446        C448   1.270       .  A
C447        O449   1.270       .  A
C447        C759   1.478       .  S
C448        C672   1.489       .  S
C450        C602   1.474       .  S
Fe451       O467   2.064       .  S
Fe451       O457   2.076       .  S
Fe451       O464   2.068       .  S
Fe451       O456   2.062       .  S
Fe451       O462   1.955       .  S
Fe452       O455   2.063       .  S
Fe452       O459   2.089       .  S
Fe452       O463   2.067       .  S
Fe452       O468   2.083       .  S
Fe452       O462   1.958       .  S
Fe453       O471   2.067       .  S
Fe453       O458   2.064       .  S
Fe453       O465   2.062       .  S
Fe453       O454   2.083       .  S
Fe453       O462   1.957       .  S
O454        C461   1.273       .  A
O455        C469   1.270       .  A
O456        C461   1.270       .  A
O457        C460   1.270       .  A
O458        C470   1.271       .  A
O459        C472   1.276       .  A
C460        O465   1.267       .  A
C460        C717   1.484       .  S
C461        C661   1.474       .  S
O463        C466   1.268       .  A
O464        C466   1.268       .  A
C466        C647   1.486       .  S
O467        C472   1.271       .  A
O468        C470   1.274       .  A
C469        O471   1.268       .  A
C469        C532   1.487       .  S
C470        C546   1.489       .  S
C472        C731   1.484       .  S
Fe473       O489   2.074       .  S
Fe473       O479   2.056       .  S
Fe473       O486   2.055       .  S
Fe473       O478   2.060       .  S
Fe473       O484   1.966       .  S
Fe474       O477   2.070       .  S
Fe474       O481   2.059       .  S
Fe474       O485   2.076       .  S
Fe474       O490   2.064       .  S
Fe474       O484   1.960       .  S
Fe475       O493   2.064       .  S
Fe475       O480   2.080       .  S
Fe475       O487   2.081       .  S
Fe475       O476   2.061       .  S
Fe475       O484   1.963       .  S
O476        C483   1.268       .  A
O477        C491   1.271       .  A
O478        C483   1.267       .  A
O479        C482   1.269       .  A
O480        C492   1.272       .  A
O481        C494   1.267       .  A
C482        O487   1.274       .  A
C482        C689   1.484       .  S
C483        C574   1.478       .  S
O485        C488   1.272       .  A
O486        C488   1.267       .  A
C488        C560   1.481       .  S
O489        C494   1.269       .  A
O490        C492   1.271       .  A
C491        O493   1.269       .  A
C491        C521   1.494       .  S
C492        C549   1.487       .  S
C494        C703   1.476       .  S
Fe495       O511   2.070       .  S
Fe495       O501   2.051       .  S
Fe495       O508   2.062       .  S
Fe495       O500   2.069       .  S
Fe495       O506   1.974       .  S
Fe496       O499   2.063       .  S
Fe496       O503   2.069       .  S
Fe496       O507   2.067       .  S
Fe496       O512   2.067       .  S
Fe496       O506   1.977       .  S
Fe497       O515   2.056       .  S
Fe497       O502   2.065       .  S
Fe497       O509   2.070       .  S
Fe497       O498   2.059       .  S
Fe497       O506   1.984       .  S
O498        C505   1.267       .  A
O499        C513   1.272       .  A
O500        C505   1.270       .  A
O501        C504   1.268       .  A
O502        C514   1.269       .  A
O503        C516   1.268       .  A
C504        O509   1.269       .  A
C504        C591   1.482       .  S
C505        C633   1.482       .  S
O507        C510   1.270       .  A
O508        C510   1.271       .  A
C510        C619   1.483       .  S
O511        C516   1.267       .  A
O512        C514   1.268       .  A
C513        O515   1.267       .  A
C513        C535   1.486       .  S
C514        C518   1.495       .  S
C516        C605   1.484       .  S
C517        C518   1.408       .  A
C517        C522   1.403       .  A
C517        H524   1.084       .  S
C518        C519   1.416       .  A
C519        C520   1.401       .  A
C519        N526   1.429       .  S
C520        C521   1.407       .  A
C520        H525   1.084       .  S
C521        C522   1.416       .  A
C522        N523   1.430       .  S
N523        O527   1.262       .  A
N523        O528   1.262       .  A
N526        O530   1.262       .  A
N526        O529   1.262       .  A
C531        C532   1.406       .  A
C531        C536   1.400       .  A
C531        H538   1.084       .  S
C532        C533   1.417       .  A
C533        C534   1.397       .  A
C533        N540   1.430       .  S
C534        C535   1.401       .  A
C534        H539   1.084       .  S
C535        C536   1.415       .  A
C536        N537   1.429       .  S
N537        O541   1.262       .  A
N537        O542   1.262       .  A
N540        O544   1.262       .  A
N540        O543   1.262       .  A
C545        C546   1.406       .  A
C545        C550   1.404       .  A
C545        H552   1.084       .  S
C546        C547   1.415       .  A
C547        C548   1.400       .  A
C547        N554   1.429       .  S
C548        C549   1.405       .  A
C548        H553   1.084       .  S
C549        C550   1.412       .  A
C550        N551   1.429       .  S
N551        O555   1.262       .  A
N551        O556   1.262       .  A
N554        O558   1.262       .  A
N554        O557   1.262       .  A
C559        C564   1.401       .  A
C559        H566   1.083       .  S
C560       C2097   1.414       .  A
C561       C2096   1.416   1_455  A
C561        C562   1.401       .  A
C561        N568   1.430       .  S
C562        H567   1.084       .  S
C563       C2100   1.408   1_455  A
C564       C2099   1.405       .  A
C564        N565   1.429       .  S
N565        O569   1.262       .  A
N565        O570   1.262       .  A
N568        O572   1.262       .  A
N568        O571   1.262       .  A
C573       C2110   1.400       .  A
C573        C578   1.402   1_655  A
C573        H580   1.084       .  S
C574       C2109   1.403       .  A
C574        C575   1.411       .  A
C575        C576   1.393       .  A
C575        N582   1.428       .  S
C576       C2113   1.403       .  A
C576        H581   1.084       .  S
C577       C2112   1.405       .  A
C577        C578   1.417       .  A
C578        N579   1.427       .  S
N579        O583   1.262       .  A
N579        O584   1.262       .  A
N582        O586   1.262       .  A
N582        O585   1.261       .  A
C587        C588   1.401       .  A
C587        C592   1.400       .  A
C587        H594   1.082       .  S
C588        C589   1.407       .  A
C589        C590   1.397       .  A
C589        N596   1.430       .  S
C590        C591   1.406       .  A
C590        H595   1.082       .  S
C591        C592   1.415       .  A
C592        N593   1.429       .  S
N593        O597   1.262       .  A
N593        O598   1.262       .  A
N596        O600   1.262       .  A
N596        O599   1.262       .  A
C601        C606   1.404       .  A
C601        H608   1.084       .  S
C602        C603   1.407       .  A
C603        C604   1.403       .  A
C603        N610   1.428       .  S
C604        H609   1.084       .  S
C605        C606   1.412       .  A
C606        N607   1.429       .  S
N607        O611   1.262       .  A
N607        O612   1.262       .  A
N610        O614   1.262       .  A
N610        O613   1.262       .  A
C615       C1384   1.401   1_545  A
C615        C620   1.403       .  A
C615        H622   1.084       .  S
C616       C1383   1.402       .  A
C617        C618   1.398       .  A
C617        N624   1.430       .  S
C618       C1387   1.404       .  A
C618        H623   1.084       .  S
C619       C1386   1.405   1_545  A
C620        N621   1.429       .  S
N621        O625   1.262       .  A
N621        O626   1.262       .  A
N624        O628   1.262       .  A
N624        O627   1.262       .  A
C629        C630   1.403       .  A
C629       C1402   1.403       .  A
C629        H636   1.084       .  S
C630        C631   1.410       .  A
C631       C1400   1.398       .  A
C631        N638   1.430       .  S
C632       C1399   1.398   1_545  A
C632        C633   1.404       .  A
C632        H637   1.084       .  S
C633        C634   1.414       .  A
C634       C1397   1.403   1_545  A
C634        N635   1.429       .  S
N635        O639   1.262       .  A
N635        O640   1.262       .  A
N638        O642   1.262       .  A
N638        O641   1.262       .  A
C643        C644   1.404   1_655  A
C643       C2184   1.398       .  A
C643        H650   1.084   1_655  S
C644        C645   1.415       .  A
C645       C2182   1.404   1_455  A
C645        N652   1.430       .  S
C646       C2181   1.406       .  A
C646        C647   1.407       .  A
C646        H651   1.084       .  S
C647        C648   1.415       .  A
C648       C2179   1.396       .  A
C648        N649   1.430       .  S
N649        O653   1.262       .  A
N649        O654   1.262       .  A
N652        O656   1.262       .  A
N652        O655   1.262       .  A
C657        C662   1.402       .  A
C657        H664   1.084       .  S
C658       C2195   1.410   1_455  A
C659       C2194   1.410       .  A
C659        C660   1.401       .  A
C659        N666   1.431       .  S
C660        H665   1.084       .  S
C661       C2198   1.409       .  A
C662       C2197   1.410   1_455  A
C662        N663   1.429       .  S
N663        O667   1.262       .  A
N663       O2204   1.262       .  A
N666        O670   1.262       .  A
N666        O669   1.262       .  A
O668       N2199   1.262       .  A
C671        C672   1.407       .  A
C671        C676   1.400       .  A
C671        H678   1.083       .  S
C672        C673   1.419       .  A
C673        C674   1.397       .  A
C673        N680   1.431       .  S
C674        C675   1.403       .  A
C674        H679   1.084       .  S
C675        C676   1.414       .  A
C676        N677   1.429       .  S
N677        O681   1.262       .  A
N677        O682   1.262       .  A
N680        O684   1.262       .  A
N680        O683   1.262       .  A
C685        C686   1.401       .  A
C685       C1458   1.398       .  A
C685       H1460   1.084       .  S
C686        C687   1.408       .  A
C687        C688   1.402       .  A
C687        N694   1.429       .  S
C688       C1457   1.407       .  A
C688        H693   1.084       .  S
C689       C1456   1.408       .  A
C689        C690   1.416       .  A
C690       C1453   1.399   1_545  A
C690        N691   1.431       .  S
N691        O695   1.262   1_545  A
N691        O696   1.262       .  A
H692       C1453   1.084       .  S
N694        O698   1.262       .  A
N694        O697   1.262       .  A
C699        C700   1.402       .  A
C699       C1088   1.398       .  A
C699        H706   1.084       .  S
C700        C701   1.410       .  A
C701       C1086   1.403       .  A
C701        N708   1.427       .  S
C702       C1085   1.401   1_546  A
C702        C703   1.403       .  A
C702        H707   1.084       .  S
C703        C704   1.411       .  A
C704       C1083   1.400   1_546  A
C704        N705   1.430       .  S
N705       O1477   1.262   1_556  A
N705        O710   1.262       .  A
N708        O712   1.261       .  A
N708       O1479   1.262       .  A
O709       N1473   1.262   1_554  A
O711       N1476   1.262       .  A
C713        C714   1.402       .  A
C713        H720   1.084       .  S
C714        C715   1.416       .  A
C715        N722   1.430       .  S
C716        C717   1.403       .  A
C716        H721   1.084       .  S
C717        C718   1.411       .  A
C718        N719   1.424       .  S
N719        O723   1.261       .  A
N719        O724   1.262       .  A
N722        O726   1.262       .  A
N722        O725   1.262       .  A
C727        C728   1.407       .  A
C727        C732   1.404       .  A
C727        H734   1.084       .  S
C728        C729   1.414       .  A
C729        C730   1.402       .  A
C729        N736   1.429       .  S
C730        C731   1.404       .  A
C730        H735   1.084       .  S
C731        C732   1.412       .  A
C732        N733   1.429       .  S
N733        O737   1.262       .  A
N733        O738   1.262       .  A
N736        O740   1.262       .  A
N736        O739   1.262       .  A
C741        C742   1.409       .  A
C741        C746   1.402       .  A
C741        H748   1.083       .  S
C742        C743   1.417       .  A
C743        C744   1.402       .  A
C743        N750   1.429       .  S
C744        C745   1.406       .  A
C744        H749   1.083       .  S
C745        C746   1.415       .  A
C746        N747   1.429       .  S
N747        O751   1.262       .  A
N747        O752   1.262       .  A
N750        O754   1.261       .  A
N750        O753   1.262       .  A
C755        C756   1.406       .  A
C755        C760   1.408       .  A
C755        H762   1.084       .  S
C756        C757   1.414       .  A
C757        C758   1.396       .  A
C757        N764   1.431       .  S
C758        C759   1.400       .  A
C758        H763   1.084       .  S
C759        C760   1.412       .  A
C760        N761   1.433       .  S
N761        O765   1.262       .  A
N761        O766   1.263       .  A
N764        O768   1.262       .  A
N764        O767   1.262       .  A
Fe769       O785   2.056       .  S
Fe769       O775   2.053       .  S
Fe769       O782   2.066       .  S
Fe769       O774   2.056       .  S
Fe769       O780   1.963       .  S
Fe770       O773   2.058       .  S
Fe770       O777   2.084       .  S
Fe770       O781   2.060       .  S
Fe770       O786   2.067       .  S
Fe770       O780   1.962       .  S
Fe771       O789   2.084       .  S
Fe771       O776   2.065       .  S
Fe771       O783   2.071       .  S
Fe771       O772   2.082       .  S
Fe771       O780   1.964       .  S
O772        C779   1.273       .  A
O773        C787   1.270       .  A
O774        C779   1.271       .  A
O775        C778   1.265       .  A
O776        C788   1.268       .  A
O777        C790   1.273       .  A
C778        O783   1.270       .  A
C778       C1098   1.484       .  S
C779       C1084   1.480       .  S
O781        C784   1.267       .  A
O782        C784   1.268       .  A
C784       C1070   1.474       .  S
O785        C790   1.268       .  A
O786        C788   1.270       .  A
C787        O789   1.274       .  A
C787       C1140   1.488       .  S
C788       C1126   1.491       .  S
C790       C1112   1.484       .  S
Fe791       O807   2.069       .  S
Fe791       O797   2.068       .  S
Fe791       O804   2.058       .  S
Fe791       O796   2.071       .  S
Fe791       O802   1.973       .  S
Fe792       O795   2.065       .  S
Fe792       O799   2.063       .  S
Fe792       O803   2.067       .  S
Fe792       O808   2.055       .  S
Fe792       O802   1.974       .  S
Fe793       O811   2.067       .  S
Fe793       O798   2.063       .  S
Fe793       O805   2.059       .  S
Fe793       O794   2.061       .  S
Fe793       O802   1.980       .  S
O794        C801   1.268       .  A
O795        C809   1.268       .  A
O796        C801   1.270       .  A
O797        C800   1.269       .  A
O798        C810   1.267       .  A
O799        C812   1.268       .  A
C800        O805   1.267       .  A
C800       C1000   1.468       .  S
C801       C1042   1.480       .  S
O803        C806   1.268       .  A
O804        C806   1.269       .  A
C806       C1028   1.483       .  S
O807        C812   1.269       .  A
O808        C810   1.268       .  A
C809        O811   1.271       .  A
C809       C1129   1.492       .  S
C810       C1059   1.487       .  S
C812       C1014   1.481       .  S
Fe813       O829   2.083       .  S
Fe813       O819   2.055       .  S
Fe813       O826   2.060       .  S
Fe813       O818   2.077       .  S
Fe813       O824   1.961       .  S
Fe814       O817   2.074       .  S
Fe814       O821   2.062       .  S
Fe814       O825   2.074       .  S
Fe814       O830   2.063       .  S
Fe814       O824   1.967       .  S
Fe815       O833   2.063       .  S
Fe815       O820   2.061       .  S
Fe815       O827   2.070       .  S
Fe815       O816   2.059       .  S
Fe815       O824   1.968       .  S
O816        C823   1.268       .  A
O817        C831   1.272       .  A
O818        C823   1.273       .  A
O819        C822   1.268       .  A
O820        C832   1.267       .  A
O821        C834   1.268       .  A
C822        O827   1.269       .  A
C822        C972   1.481       .  S
C823        C961   1.487       .  S
O825        C828   1.270       .  A
O826        C828   1.268       .  A
C828        C947   1.475       .  S
O829        C834   1.272       .  A
O830        C832   1.269       .  A
C831        O833   1.270       .  A
C831       C1143   1.485       .  S
C832       C1056   1.489       .  S
C834        C986   1.474       .  S
Fe835       O851   2.058       .  S
Fe835       O841   2.073       .  S
Fe835       O848   2.069       .  S
Fe835       O840   2.056       .  S
Fe835       O846   1.952       .  S
Fe836       O839   2.063       .  S
Fe836       O843   2.085       .  S
Fe836       O847   2.065       .  S
Fe836       O852   2.076       .  S
Fe836       O846   1.954       .  S
Fe837       O855   2.074       .  S
Fe837       O842   2.065       .  S
Fe837       O849   2.063       .  S
Fe837       O838   2.083       .  S
Fe837       O846   1.955       .  S
O838        C845   1.274       .  A
O839        C853   1.270       .  A
O840        C845   1.269       .  A
O841        C844   1.270       .  A
O842        C854   1.270       .  A
O843        C856   1.275       .  A
C844        O849   1.267       .  A
C844       C1101   1.484       .  S
C845       C1045   1.473       .  S
O847        C850   1.268       .  A
O848        C850   1.268       .  A
C850       C1031   1.482       .  S
O851        C856   1.270       .  A
O852        C854   1.273       .  A
C853        O855   1.270       .  A
C853        C916   1.489       .  S
C854        C930   1.492       .  S
C856       C1115   1.480       .  S
Fe857       O873   2.070       .  S
Fe857       O863   2.052       .  S
Fe857       O870   2.051       .  S
Fe857       O862   2.065       .  S
Fe857       O868   1.964       .  S
Fe858       O861   2.067       .  S
Fe858       O865   2.064       .  S
Fe858       O869   2.073       .  S
Fe858       O874   2.066       .  S
Fe858       O868   1.962       .  S
Fe859       O877   2.071       .  S
Fe859       O864   2.075       .  S
Fe859       O871   2.078       .  S
Fe859       O860   2.073       .  S
Fe859       O868   1.964       .  S
O860        C867   1.271       .  A
O861        C875   1.270       .  A
O862        C867   1.267       .  A
O863        C866   1.267       .  A
O864        C876   1.272       .  A
O865        C878   1.269       .  A
C866        O871   1.273       .  A
C866       C1073   1.481       .  S
C867        C958   1.490       .  S
O869        C872   1.270       .  A
O870        C872   1.266       .  A
C872        C944   1.482       .  S
O873        C878   1.270       .  A
O874        C876   1.272       .  A
C875        O877   1.270       .  A
C875        C905   1.496       .  S
C876        C933   1.491       .  S
C878       C1087   1.480       .  S
Fe879       O895   2.070       .  S
Fe879       O885   2.053       .  S
Fe879       O892   2.060       .  S
Fe879       O884   2.075       .  S
Fe879       O890   1.971       .  S
Fe880       O883   2.062       .  S
Fe880       O887   2.069       .  S
Fe880       O891   2.073       .  S
Fe880       O896   2.070       .  S
Fe880       O890   1.974       .  S
Fe881       O899   2.065       .  S
Fe881       O886   2.066       .  S
Fe881       O893   2.069       .  S
Fe881       O882   2.065       .  S
Fe881       O890   1.980       .  S
O882        C889   1.269       .  A
O883        C897   1.272       .  A
O884        C889   1.272       .  A
O885        C888   1.266       .  A
O886        C898   1.269       .  A
O887        C900   1.269       .  A
C888        O893   1.268       .  A
C888        C975   1.473       .  S
C889       C1017   1.488       .  S
O891        C894   1.271       .  A
O892        C894   1.271       .  A
C894       C1003   1.480       .  S
O895        C900   1.267       .  A
O896        C898   1.270       .  A
C897        O899   1.270       .  A
C897        C919   1.487       .  S
C898        C902   1.495       .  S
C900        C989   1.485       .  S
C901        C902   1.409       .  A
C901        C906   1.404       .  A
C901        H908   1.084       .  S
C902        C903   1.415       .  A
C903        C904   1.401       .  A
C903        N910   1.430       .  S
C904        C905   1.408       .  A
C904        H909   1.083       .  S
C905        C906   1.415       .  A
C906        N907   1.429       .  S
N907        O911   1.262       .  A
N907        O912   1.262       .  A
N910        O914   1.262       .  A
N910        O913   1.262       .  A
C915        C916   1.408       .  A
C915        C920   1.402       .  A
C915        H922   1.083       .  S
C916        C917   1.417       .  A
C917        C918   1.397       .  A
C917        N924   1.430       .  S
C918        C919   1.402       .  A
C918        H923   1.084       .  S
C919        C920   1.413       .  A
C920        N921   1.429       .  S
N921        O925   1.262       .  A
N921        O926   1.262       .  A
N924        O928   1.262       .  A
N924        O927   1.262       .  A
C929        C930   1.407       .  A
C929        C934   1.401       .  A
C929        H936   1.084       .  S
C930        C931   1.415       .  A
C931        C932   1.402       .  A
C931        N938   1.429       .  S
C932        C933   1.406       .  A
C932        H937   1.083       .  S
C933        C934   1.414       .  A
C934        N935   1.430       .  S
N935        O939   1.262       .  A
N935        O940   1.262       .  A
N938        O942   1.262       .  A
N938        O941   1.262       .  A
C943       C1328   1.407   1_554  A
C943        C948   1.399       .  A
C943        H950   1.084       .  S
C944       C1327   1.408       .  A
C944       C2481   1.415       .  A
C945       C2480   1.416   1_455  A
C945        C946   1.399       .  A
C945        N952   1.429       .  S
C946       C1331   1.400       .  A
C946        H951   1.084       .  S
C947       C1330   1.403   1_554  A
C947       C2484   1.409   1_455  A
C948       C2483   1.407       .  A
C948        N949   1.430       .  S
N949        O953   1.262       .  A
N949        O954   1.262       .  A
N952        O956   1.262       .  A
N952        O955   1.262       .  A
C957       C2494   1.401       .  A
C957        C962   1.402   1_655  A
C957        H964   1.084       .  S
C958       C2493   1.407       .  A
C958        C959   1.418       .  A
C959        C960   1.398       .  A
C959        N966   1.430       .  S
C960       C2497   1.400       .  A
C960        H965   1.084       .  S
C961       C2496   1.405       .  A
C961        C962   1.416       .  A
C962        N963   1.427       .  S
N963        O967   1.262       .  A
N963        O968   1.262       .  A
N966        O970   1.262       .  A
N966        O969   1.262       .  A
C971        C972   1.406       .  A
C971        C976   1.399       .  A
C971        H978   1.079       .  S
C972        C973   1.414       .  A
C973        C974   1.399       .  A
C973        N980   1.429       .  S
C974        C975   1.401       .  A
C974        H979   1.078       .  S
C975        C976   1.409       .  A
C976        N977   1.430       .  S
N977        O981   1.262       .  A
N977        O982   1.262       .  A
N980        O984   1.262       .  A
N980        O983   1.262       .  A
C985       C1370   1.401       .  A
C985        C990   1.403       .  A
C985        H992   1.084       .  S
C986       C1369   1.401   1_554  A
C986        C987   1.407       .  A
C987        C988   1.404       .  A
C987        N994   1.428       .  S
C988       C1373   1.406   1_554  A
C988        H993   1.084       .  S
C989       C1372   1.406       .  A
C989        C990   1.415       .  A
C990        N991   1.429       .  S
N991        O995   1.262       .  A
N991        O996   1.261       .  A
N994        O998   1.262       .  A
N994        O997   1.261       .  A
C999       C1004   1.404       .  A
C999       H1006   1.084       .  S
C1000      C1385   1.407   1_554  A
C1001      C1384   1.408       .  A
C1001      C1002   1.397       .  A
C1001      N1008   1.429       .  S
C1002      H1007   1.084       .  S
C1003      C1388   1.415       .  A
C1004      C1387   1.417   1_554  A
C1004      N1005   1.429       .  S
N1005      O1009   1.262       .  A
N1005      O1010   1.262       .  A
N1008      O1012   1.262       .  A
N1008      O1011   1.262       .  A
C1013      C1014   1.404       .  A
C1013      H1020   1.084       .  S
C1014      C1015   1.411       .  A
C1015      N1022   1.429       .  S
C1016      C1017   1.407       .  A
C1016      H1021   1.084       .  S
C1017      C1018   1.415       .  A
C1018      N1019   1.429       .  S
N1019      O1023   1.262       .  A
N1019      O1024   1.262       .  A
N1022      O1026   1.262       .  A
N1022      O1025   1.262       .  A
C1027      C1028   1.404       .  A
C1027      C2568   1.397   1_455  A
C1027      H1034   1.084       .  S
C1028      C1029   1.415       .  A
C1029      C2566   1.403   1_455  A
C1029      N1036   1.429       .  S
C1030      C2565   1.405       .  A
C1030      C1031   1.406       .  A
C1030      H1035   1.084       .  S
C1031      C1032   1.413       .  A
C1032      C2563   1.396       .  A
C1032      N1033   1.429       .  S
N1033      O1037   1.262       .  A
N1033      O1038   1.262       .  A
N1036      O1040   1.262       .  A
N1036      O1039   1.262       .  A
C1041      C1426   1.405       .  A
C1041      C1046   1.401       .  A
C1041      H1048   1.084       .  S
C1042      C1425   1.406   1_554  A
C1042      C2579   1.411   1_455  A
C1043      C2578   1.412       .  A
C1043      C1044   1.401       .  A
C1043      N1050   1.430       .  S
C1044      C1429   1.403   1_554  A
C1044      H1049   1.084       .  S
C1045      C1428   1.402       .  A
C1045      C2582   1.409       .  A
C1046      C2581   1.411   1_455  A
C1046      N1047   1.430       .  S
N1047      O1051   1.262       .  A
N1047      O2588   1.262       .  A
N1050      O1054   1.262       .  A
N1050      O1053   1.262       .  A
O1052      N2583   1.262       .  A
C1055      C1056   1.407       .  A
C1055      C1060   1.401       .  A
C1055      H1062   1.083       .  S
C1056      C1057   1.417       .  A
C1057      C1058   1.396       .  A
C1057      N1064   1.430       .  S
C1058      C1059   1.403       .  A
C1058      H1063   1.084       .  S
C1059      C1060   1.414       .  A
C1060      N1061   1.429       .  S
N1061      O1065   1.262       .  A
N1061      O1066   1.262       .  A
N1064      O1068   1.261       .  A
N1064      O1067   1.262       .  A
C1069      C1070   1.401       .  A
C1070      C1071   1.408       .  A
C1071      C1072   1.401   1_565  A
C1071      N1078   1.429       .  S
C1072      H1077   1.084       .  S
C1073      C1074   1.415       .  A
C1074      N1075   1.432       .  S
N1075      O1079   1.262       .  A
N1075      O1080   1.262       .  A
N1078      O1082   1.262       .  A
N1078      O1081   1.262       .  A
C1083      C1084   1.404       .  A
C1083      H1090   1.084       .  S
C1084      C1085   1.411       .  A
C1085      N1092   1.428       .  S
C1086      C1087   1.404       .  A
C1086      H1091   1.084       .  S
C1087      C1088   1.413       .  A
C1088      N1089   1.430       .  S
N1089      O1094   1.262       .  A
N1092      O1096   1.262   1_554  A
C1097      C1098   1.402       .  A
C1097      C1486   1.402   1_554  A
C1097      H1104   1.084       .  S
C1098      C1099   1.416       .  A
C1099      C1484   1.397   1_554  A
C1099      N1106   1.430       .  S
C1100      C1483   1.398       .  A
C1100      C1101   1.403       .  A
C1100      H1105   1.084       .  S
C1101      C1102   1.411       .  A
C1102      C1481   1.402       .  A
C1102      N1103   1.424       .  S
N1103      O1107   1.261       .  A
N1103      O1108   1.262       .  A
N1106      O1110   1.262       .  A
N1106      O1109   1.262       .  A
C1111      C1112   1.406       .  A
C1111      C1116   1.402       .  A
C1111      H1118   1.084       .  S
C1112      C1113   1.413       .  A
C1113      C1114   1.400       .  A
C1113      N1120   1.429       .  S
C1114      C1115   1.404       .  A
C1114      H1119   1.084       .  S
C1115      C1116   1.411       .  A
C1116      N1117   1.429       .  S
N1117      O1121   1.262       .  A
N1117      O1122   1.262       .  A
N1120      O1124   1.262       .  A
N1120      O1123   1.262       .  A
C1125      C1126   1.407       .  A
C1125      C1130   1.400       .  A
C1125      H1132   1.084       .  S
C1126      C1127   1.416       .  A
C1127      C1128   1.401       .  A
C1127      N1134   1.429       .  S
C1128      C1129   1.406       .  A
C1128      H1133   1.083       .  S
C1129      C1130   1.416       .  A
C1130      N1131   1.429       .  S
N1131      O1135   1.262       .  A
N1131      O1136   1.262       .  A
N1134      O1138   1.261       .  A
N1134      O1137   1.262       .  A
C1139      C1140   1.405       .  A
C1139      C1144   1.405       .  A
C1139      H1146   1.084       .  S
C1140      C1141   1.416       .  A
C1141      C1142   1.400       .  A
C1141      N1148   1.430       .  S
C1142      C1143   1.403       .  A
C1142      H1147   1.084       .  S
C1143      C1144   1.414       .  A
C1144      N1145   1.434       .  S
N1145      O1149   1.262       .  A
N1145      O1150   1.263       .  A
N1148      O1152   1.262       .  A
N1148      O1151   1.262       .  A
Fe1153     O1169   2.060       .  S
Fe1153     O1159   2.050       .  S
Fe1153     O1166   2.065       .  S
Fe1153     O1158   2.059       .  S
Fe1153     O1164   1.972       .  S
Fe1154     O1157   2.059       .  S
Fe1154     O1161   2.083       .  S
Fe1154     O1165   2.063       .  S
Fe1154     O1170   2.065       .  S
Fe1154     O1164   1.967       .  S
Fe1155     O1173   2.085       .  S
Fe1155     O1160   2.070       .  S
Fe1155     O1167   2.076       .  S
Fe1155     O1156   2.081       .  S
Fe1155     O1164   1.972       .  S
O1156      C1163   1.274       .  A
O1157      C1171   1.270       .  A
O1158      C1163   1.271       .  A
O1159      C1162   1.264       .  A
O1160      C1172   1.268       .  A
O1161      C1174   1.272       .  A
C1162      O1167   1.270       .  A
C1162      C1482   1.484       .  S
C1163      C1468   1.476       .  S
O1165      C1168   1.267       .  A
O1166      C1168   1.267       .  A
C1168      C1454   1.473       .  S
O1169      C1174   1.269       .  A
O1170      C1172   1.269       .  A
C1171      O1173   1.275       .  A
C1171      C1524   1.490       .  S
C1172      C1510   1.496       .  S
C1174      C1496   1.485       .  S
Fe1175     O1191   2.065       .  S
Fe1175     O1181   2.071       .  S
Fe1175     O1188   2.064       .  S
Fe1175     O1180   2.066       .  S
Fe1175     O1186   1.975       .  S
Fe1176     O1179   2.067       .  S
Fe1176     O1183   2.063       .  S
Fe1176     O1187   2.068       .  S
Fe1176     O1192   2.054       .  S
Fe1176     O1186   1.976       .  S
Fe1177     O1195   2.066       .  S
Fe1177     O1182   2.061       .  S
Fe1177     O1189   2.057       .  S
Fe1177     O1178   2.057       .  S
Fe1177     O1186   1.981       .  S
O1178      C1185   1.267       .  A
O1179      C1193   1.268       .  A
O1180      C1185   1.269       .  A
O1181      C1184   1.270       .  A
O1182      C1194   1.267       .  A
O1183      C1196   1.268       .  A
C1184      O1189   1.267       .  A
C1184      C1384   1.471       .  S
C1185      C1426   1.476       .  S
O1187      C1190   1.268       .  A
O1188      C1190   1.269       .  A
C1190      C1412   1.486       .  S
O1191      C1196   1.269       .  A
O1192      C1194   1.269       .  A
C1193      O1195   1.270       .  A
C1193      C1513   1.494       .  S
C1194      C1443   1.486       .  S
C1196      C1398   1.478       .  S
Fe1197     O1213   2.079       .  S
Fe1197     O1203   2.060       .  S
Fe1197     O1210   2.065       .  S
Fe1197     O1202   2.071       .  S
Fe1197     O1208   1.957       .  S
Fe1198     O1201   2.073       .  S
Fe1198     O1205   2.062       .  S
Fe1198     O1209   2.070       .  S
Fe1198     O1214   2.062       .  S
Fe1198     O1208   1.963       .  S
Fe1199     O1217   2.064       .  S
Fe1199     O1204   2.060       .  S
Fe1199     O1211   2.073       .  S
Fe1199     O1200   2.060       .  S
Fe1199     O1208   1.965       .  S
O1200      C1207   1.267       .  A
O1201      C1215   1.272       .  A
O1202      C1207   1.270       .  A
O1203      C1206   1.269       .  A
O1204      C1216   1.266       .  A
O1205      C1218   1.267       .  A
C1206      O1211   1.271       .  A
C1206      C1356   1.480       .  S
C1207      C1345   1.480       .  S
O1209      C1212   1.270       .  A
O1210      C1212   1.269       .  A
C1212      C1331   1.471       .  S
O1213      C1218   1.270       .  A
O1214      C1216   1.269       .  A
C1215      O1217   1.271       .  A
C1215      C1527   1.484       .  S
C1216      C1440   1.487       .  S
C1218      C1370   1.473       .  S
Fe1219     O1235   2.062       .  S
Fe1219     O1225   2.071       .  S
Fe1219     O1232   2.072       .  S
Fe1219     O1224   2.066       .  S
Fe1219     O1230   1.954       .  S
Fe1220     O1223   2.060       .  S
Fe1220     O1227   2.087       .  S
Fe1220     O1231   2.062       .  S
Fe1220     O1236   2.079       .  S
Fe1220     O1230   1.953       .  S
Fe1221     O1239   2.070       .  S
Fe1221     O1226   2.067       .  S
Fe1221     O1233   2.064       .  S
Fe1221     O1222   2.083       .  S
Fe1221     O1230   1.955       .  S
O1222      C1229   1.274       .  A
O1223      C1237   1.270       .  A
O1224      C1229   1.271       .  A
O1225      C1228   1.270       .  A
O1226      C1238   1.271       .  A
O1227      C1240   1.275       .  A
C1228      O1233   1.267       .  A
C1228      C1485   1.482       .  S
C1229      C1429   1.478       .  S
O1231      C1234   1.267       .  A
O1232      C1234   1.268       .  A
C1234      C1415   1.475       .  S
O1235      C1240   1.271       .  A
O1236      C1238   1.273       .  A
C1237      O1239   1.269       .  A
C1237      C1300   1.487       .  S
C1238      C1314   1.492       .  S
C1240      C1499   1.484       .  S
Fe1241     O1257   2.081       .  S
Fe1241     O1247   2.055       .  S
Fe1241     O1254   2.058       .  S
Fe1241     O1246   2.072       .  S
Fe1241     O1252   1.964       .  S
Fe1242     O1245   2.071       .  S
Fe1242     O1249   2.061       .  S
Fe1242     O1253   2.074       .  S
Fe1242     O1258   2.065       .  S
Fe1242     O1252   1.960       .  S
Fe1243     O1261   2.064       .  S
Fe1243     O1248   2.078       .  S
Fe1243     O1255   2.080       .  S
Fe1243     O1244   2.064       .  S
Fe1243     O1252   1.961       .  S
O1244      C1251   1.268       .  A
O1245      C1259   1.270       .  A
O1246      C1251   1.270       .  A
O1247      C1250   1.268       .  A
O1248      C1260   1.272       .  A
O1249      C1262   1.268       .  A
C1250      O1255   1.273       .  A
C1250      C1457   1.480       .  S
C1251      C1342   1.478       .  S
O1253      C1256   1.271       .  A
O1254      C1256   1.268       .  A
C1256      C1328   1.482       .  S
O1257      C1262   1.272       .  A
O1258      C1260   1.271       .  A
C1259      O1261   1.269       .  A
C1259      C1289   1.493       .  S
C1260      C1317   1.491       .  S
C1262      C1471   1.481       .  S
Fe1263     O1279   2.073       .  S
Fe1263     O1269   2.055       .  S
Fe1263     O1276   2.064       .  S
Fe1263     O1268   2.075       .  S
Fe1263     O1274   1.965       .  S
Fe1264     O1267   2.063       .  S
Fe1264     O1271   2.070       .  S
Fe1264     O1275   2.070       .  S
Fe1264     O1280   2.070       .  S
Fe1264     O1274   1.972       .  S
Fe1265     O1283   2.059       .  S
Fe1265     O1270   2.066       .  S
Fe1265     O1277   2.072       .  S
Fe1265     O1266   2.061       .  S
Fe1265     O1274   1.976       .  S
O1266      C1273   1.268       .  A
O1267      C1281   1.272       .  A
O1268      C1273   1.272       .  A
O1269      C1272   1.267       .  A
O1270      C1282   1.270       .  A
O1271      C1284   1.270       .  A
C1272      O1277   1.269       .  A
C1272      C1359   1.480       .  S
C1273      C1401   1.487       .  S
O1275      C1278   1.270       .  A
O1276      C1278   1.271       .  A
C1278      C1387   1.484       .  S
O1279      C1284   1.269       .  A
O1280      C1282   1.269       .  A
C1281      O1283   1.268       .  A
C1281      C1303   1.484       .  S
C1282      C1286   1.495       .  S
C1284      C1373   1.485       .  S
C1285      C1286   1.408       .  A
C1285      C1290   1.401       .  A
C1285      H1292   1.084       .  S
C1286      C1287   1.416       .  A
C1287      C1288   1.402       .  A
C1287      N1294   1.429       .  S
C1288      C1289   1.408       .  A
C1288      H1293   1.084       .  S
C1289      C1290   1.414       .  A
C1290      N1291   1.429       .  S
N1291      O1295   1.262       .  A
N1291      O1296   1.262       .  A
N1294      O1298   1.262       .  A
N1294      O1297   1.262       .  A
C1299      C1300   1.408       .  A
C1299      C1304   1.400       .  A
C1299      H1306   1.084       .  S
C1300      C1301   1.417       .  A
C1301      C1302   1.397       .  A
C1301      N1308   1.431       .  S
C1302      C1303   1.402       .  A
C1302      H1307   1.084       .  S
C1303      C1304   1.413       .  A
C1304      N1305   1.429       .  S
N1305      O1309   1.262       .  A
N1305      O1310   1.262       .  A
N1308      O1312   1.262       .  A
N1308      O1311   1.262       .  A
C1313      C1314   1.407       .  A
C1313      C1318   1.402       .  A
C1313      H1320   1.084       .  S
C1314      C1315   1.415       .  A
C1315      C1316   1.402       .  A
C1315      N1322   1.429       .  S
C1316      C1317   1.406       .  A
C1316      H1321   1.084       .  S
C1317      C1318   1.414       .  A
C1318      N1319   1.429       .  S
N1319      O1323   1.262       .  A
N1319      O1324   1.262       .  A
N1322      O1326   1.262       .  A
N1322      O1325   1.262       .  A
C1327      C1332   1.399       .  A
C1327      H1334   1.084       .  S
C1328      C2865   1.413       .  A
C1329      C2864   1.414   1_455  A
C1329      C1330   1.401       .  A
C1329      N1336   1.430       .  S
C1330      H1335   1.084       .  S
C1331      C2868   1.407   1_455  A
C1332      C2867   1.406       .  A
C1332      N1333   1.430       .  S
N1333      O1337   1.262       .  A
N1333      O1338   1.262       .  A
N1336      O1340   1.262       .  A
N1336      O1339   1.262       .  A
C1341      C2878   1.404       .  A
C1341      C1346   1.403   1_655  A
C1341      H1348   1.083       .  S
C1342      C2877   1.401       .  A
C1342      C1343   1.408       .  A
C1343      C1344   1.397       .  A
C1343      N1350   1.427       .  S
C1344      C2881   1.405       .  A
C1344      H1349   1.083       .  S
C1345      C2880   1.402       .  A
C1345      C1346   1.414       .  A
C1346      N1347   1.432       .  S
N1347      O1351   1.262       .  A
N1347      O1352   1.262       .  A
N1350      O1354   1.262       .  A
N1350      O1353   1.262       .  A
C1355      C1356   1.407       .  A
C1355      C1360   1.404       .  A
C1355      H1362   1.038       .  S
C1356      C1357   1.410       .  A
C1357      C1358   1.401       .  A
C1357      N1364   1.430       .  S
C1358      C1359   1.406       .  A
C1358      H1363   1.052       .  S
C1359      C1360   1.411       .  A
C1360      N1361   1.430       .  S
N1361      O1365   1.262       .  A
N1361      O1366   1.262       .  A
N1364      O1368   1.262       .  A
N1364      O1367   1.262       .  A
C1369      C1374   1.403       .  A
C1369      H1376   1.084       .  S
C1370      C1371   1.406       .  A
C1371      C1372   1.402       .  A
C1371      N1378   1.428       .  S
C1372      H1377   1.084       .  S
C1373      C1374   1.414       .  A
C1374      N1375   1.428       .  S
N1375      O1379   1.262       .  A
N1375      O1380   1.262       .  A
N1378      O1382   1.262       .  A
N1378      O1381   1.261       .  A
C1383      C1388   1.404       .  A
C1383      H1390   1.084       .  S
C1385      C1386   1.397       .  A
C1385      N1392   1.430       .  S
C1386      H1391   1.084       .  S
C1388      N1389   1.429       .  S
N1389      O1393   1.262       .  A
N1389      O1394   1.262       .  A
N1392      O1396   1.262       .  A
N1392      O1395   1.262       .  A
C1397      C1398   1.404       .  A
C1397      H1404   1.084       .  S
C1398      C1399   1.411       .  A
C1399      N1406   1.430       .  S
C1400      C1401   1.406       .  A
C1400      H1405   1.084       .  S
C1401      C1402   1.416       .  A
C1402      N1403   1.429       .  S
N1403      O1407   1.262       .  A
N1403      O1408   1.262       .  A
N1406      O1410   1.262       .  A
N1406      O1409   1.262       .  A
C1411      C1412   1.405   1_655  A
C1411      C2952   1.398       .  A
C1411      H1418   1.084   1_655  S
C1412      C1413   1.416       .  A
C1413      C2950   1.404   1_455  A
C1413      N1420   1.430       .  S
C1414      C2949   1.402       .  A
C1414      C1415   1.402       .  A
C1414      H1419   1.084       .  S
C1415      C1416   1.410       .  A
C1416      C2947   1.397       .  A
C1416      N1417   1.430       .  S
N1417      O1421   1.262       .  A
N1417      O1422   1.262       .  A
N1420      O1424   1.262       .  A
N1420      O1423   1.262       .  A
C1425      C1430   1.403       .  A
C1425      H1432   1.084       .  S
C1426      C2963   1.409   1_455  A
C1427      C2962   1.412       .  A
C1427      C1428   1.399       .  A
C1427      N1434   1.430       .  S
C1428      H1433   1.084       .  S
C1429      C2966   1.409       .  A
C1430      C2965   1.410   1_455  A
C1430      N1431   1.429       .  S
N1431      O1435   1.262       .  A
N1431      O2972   1.262       .  A
N1434      O1438   1.262       .  A
N1434      O1437   1.262       .  A
O1436      N2967   1.262       .  A
C1439      C1440   1.407       .  A
C1439      C1444   1.400       .  A
C1439      H1446   1.083       .  S
C1440      C1441   1.418       .  A
C1441      C1442   1.396       .  A
C1441      N1448   1.431       .  S
C1442      C1443   1.403       .  A
C1442      H1447   1.084       .  S
C1443      C1444   1.414       .  A
C1444      N1445   1.429       .  S
N1445      O1449   1.262       .  A
N1445      O1450   1.262       .  A
N1448      O1452   1.261       .  A
N1448      O1451   1.262       .  A
C1453      C1454   1.400       .  A
C1454      C1455   1.407       .  A
C1455      C1456   1.402   1_565  A
C1455      N1462   1.429       .  S
C1456      H1461   1.083       .  S
C1457      C1458   1.417       .  A
C1458      N1459   1.434       .  S
N1459      O1463   1.262       .  A
N1459      O1464   1.262       .  A
N1462      O1466   1.262   1_565  A
N1462      O1465   1.262       .  A
C1467      C1468   1.401       .  A
C1467      H1474   1.083       .  S
C1468      C1469   1.408       .  A
C1469      N1476   1.427       .  S
C1470      C1471   1.404       .  A
C1470      H1475   1.084       .  S
C1471      C1472   1.412       .  A
C1472      N1473   1.430       .  S
N1473      O1478   1.262       .  A
N1476      O1480   1.261       .  A
C1481      C1482   1.402       .  A
C1481      H1488   1.084       .  S
C1482      C1483   1.416       .  A
C1483      N1490   1.430       .  S
C1484      C1485   1.403       .  A
C1484      H1489   1.084       .  S
C1485      C1486   1.412       .  A
C1486      N1487   1.426       .  S
N1487      O1491   1.261       .  A
N1487      O1492   1.262       .  A
N1490      O1494   1.262       .  A
N1490      O1493   1.262       .  A
C1495      C1496   1.406       .  A
C1495      C1500   1.403       .  A
C1495      H1502   1.084       .  S
C1496      C1497   1.413       .  A
C1497      C1498   1.401       .  A
C1497      N1504   1.430       .  S
C1498      C1499   1.405       .  A
C1498      H1503   1.084       .  S
C1499      C1500   1.412       .  A
C1500      N1501   1.429       .  S
N1501      O1505   1.262       .  A
N1501      O1506   1.262       .  A
N1504      O1508   1.262       .  A
N1504      O1507   1.262       .  A
C1509      C1510   1.408       .  A
C1509      C1514   1.401       .  A
C1509      H1516   1.083       .  S
C1510      C1511   1.418       .  A
C1511      C1512   1.403       .  A
C1511      N1518   1.430       .  S
C1512      C1513   1.406       .  A
C1512      H1517   1.083       .  S
C1513      C1514   1.415       .  A
C1514      N1515   1.429       .  S
N1515      O1519   1.262       .  A
N1515      O1520   1.262       .  A
N1518      O1522   1.262       .  A
N1518      O1521   1.262       .  A
C1523      C1524   1.406       .  A
C1523      C1528   1.406       .  A
C1523      H1530   1.084       .  S
C1524      C1525   1.417       .  A
C1525      C1526   1.400       .  A
C1525      N1532   1.430       .  S
C1526      C1527   1.402       .  A
C1526      H1531   1.084       .  S
C1527      C1528   1.414       .  A
C1528      N1529   1.434       .  S
N1529      O1533   1.262       .  A
N1529      O1534   1.263       .  A
N1532      O1536   1.262       .  A
N1532      O1535   1.262       .  A
Fe1537     O1553   2.057       .  S
Fe1537     O1543   2.054       .  S
Fe1537     O1550   2.065       .  S
Fe1537     O1542   2.054       .  S
Fe1537     O1548   1.965       .  S
Fe1538     O1541   2.058       .  S
Fe1538     O1545   2.083       .  S
Fe1538     O1549   2.063       .  S
Fe1538     O1554   2.071       .  S
Fe1538     O1548   1.963       .  S
Fe1539     O1557   2.081       .  S
Fe1539     O1544   2.069       .  S
Fe1539     O1551   2.072       .  S
Fe1539     O1540   2.083       .  S
Fe1539     O1548   1.964       .  S
O1540      C1547   1.275       .  A
O1541      C1555   1.269       .  A
O1542      C1547   1.272       .  A
O1543      C1546   1.264       .  A
O1544      C1556   1.269       .  A
O1545      C1558   1.273       .  A
C1546      O1551   1.269       .  A
C1546      C1866   1.483       .  S
C1547      C1852   1.478       .  S
O1549      C1552   1.267       .  A
O1550      C1552   1.267       .  A
C1552      C1838   1.474       .  S
O1553      C1558   1.269       .  A
O1554      C1556   1.271       .  A
C1555      O1557   1.275       .  A
C1555      C1908   1.490       .  S
C1556      C1894   1.496       .  S
C1558      C1880   1.484       .  S
Fe1559     O1575   2.076       .  S
Fe1559     O1565   2.072       .  S
Fe1559     O1572   2.059       .  S
Fe1559     O1564   2.074       .  S
Fe1559     O1570   1.972       .  S
Fe1560     O1563   2.075       .  S
Fe1560     O1567   2.063       .  S
Fe1560     O1571   2.073       .  S
Fe1560     O1576   2.054       .  S
Fe1560     O1570   1.970       .  S
Fe1561     O1579   2.068       .  S
Fe1561     O1566   2.059       .  S
Fe1561     O1573   2.057       .  S
Fe1561     O1562   2.059       .  S
Fe1561     O1570   1.976       .  S
O1562      C1569   1.268       .  A
O1563      C1577   1.271       .  A
O1564      C1569   1.271       .  A
O1565      C1568   1.270       .  A
O1566      C1578   1.266       .  A
O1567      C1580   1.269       .  A
C1568      O1573   1.267       .  A
C1568      C1768   1.474       .  S
C1569      C1810   1.482       .  S
O1571      C1574   1.269       .  A
O1572      C1574   1.269       .  A
C1574      C1796   1.484       .  S
O1575      C1580   1.271       .  A
O1576      C1578   1.269       .  A
C1577      O1579   1.271       .  A
C1577      C1897   1.494       .  S
C1578      C1827   1.484       .  S
C1580      C1782   1.478       .  S
Fe1581     O1597   2.080       .  S
Fe1581     O1587   2.053       .  S
Fe1581     O1594   2.059       .  S
Fe1581     O1586   2.074       .  S
Fe1581     O1592   1.959       .  S
Fe1582     O1585   2.069       .  S
Fe1582     O1589   2.066       .  S
Fe1582     O1593   2.068       .  S
Fe1582     O1598   2.065       .  S
Fe1582     O1592   1.969       .  S
Fe1583     O1601   2.065       .  S
Fe1583     O1588   2.054       .  S
Fe1583     O1595   2.067       .  S
Fe1583     O1584   2.063       .  S
Fe1583     O1592   1.972       .  S
O1584      C1591   1.269       .  A
O1585      C1599   1.272       .  A
O1586      C1591   1.273       .  A
O1587      C1590   1.267       .  A
O1588      C1600   1.265       .  A
O1589      C1602   1.269       .  A
C1590      O1595   1.267       .  A
C1590      C1740   1.477       .  S
C1591      C1729   1.486       .  S
O1593      C1596   1.269       .  A
O1594      C1596   1.268       .  A
C1596      C1715   1.473       .  S
O1597      C1602   1.271       .  A
O1598      C1600   1.269       .  A
C1599      O1601   1.271       .  A
C1599      C1911   1.486       .  S
C1600      C1824   1.487       .  S
C1602      C1754   1.478       .  S
Fe1603     O1619   2.060       .  S
Fe1603     O1609   2.077       .  S
Fe1603     O1616   2.078       .  S
Fe1603     O1608   2.064       .  S
Fe1603     O1614   1.954       .  S
Fe1604     O1607   2.060       .  S
Fe1604     O1611   2.081       .  S
Fe1604     O1615   2.061       .  S
Fe1604     O1620   2.074       .  S
Fe1604     O1614   1.953       .  S
Fe1605     O1623   2.074       .  S
Fe1605     O1610   2.068       .  S
Fe1605     O1617   2.063       .  S
Fe1605     O1606   2.079       .  S
Fe1605     O1614   1.957       .  S
O1606      C1613   1.273       .  A
O1607      C1621   1.270       .  A
O1608      C1613   1.271       .  A
O1609      C1612   1.271       .  A
O1610      C1622   1.270       .  A
O1611      C1624   1.273       .  A
C1612      O1617   1.267       .  A
C1612      C1869   1.490       .  S
C1613      C1813   1.476       .  S
O1615      C1618   1.267       .  A
O1616      C1618   1.270       .  A
C1618      C1799   1.479       .  S
O1619      C1624   1.270       .  A
O1620      C1622   1.272       .  A
C1621      O1623   1.270       .  A
C1621      C1684   1.486       .  S
C1622      C1698   1.493       .  S
C1624      C1883   1.479       .  S
Fe1625     O1641   2.065       .  S
Fe1625     O1631   2.059       .  S
Fe1625     O1638   2.058       .  S
Fe1625     O1630   2.064       .  S
Fe1625     O1636   1.964       .  S
Fe1626     O1629   2.074       .  S
Fe1626     O1633   2.062       .  S
Fe1626     O1637   2.075       .  S
Fe1626     O1642   2.065       .  S
Fe1626     O1636   1.964       .  S
Fe1627     O1645   2.063       .  S
Fe1627     O1632   2.076       .  S
Fe1627     O1639   2.079       .  S
Fe1627     O1628   2.065       .  S
Fe1627     O1636   1.961       .  S
O1628      C1635   1.269       .  A
O1629      C1643   1.270       .  A
O1630      C1635   1.268       .  A
O1631      C1634   1.268       .  A
O1632      C1644   1.272       .  A
O1633      C1646   1.270       .  A
C1634      O1639   1.273       .  A
C1634      C1841   1.484       .  S
C1635      C1726   1.478       .  S
O1637      C1640   1.271       .  A
O1638      C1640   1.268       .  A
C1640      C1712   1.485       .  S
O1641      C1646   1.269       .  A
O1642      C1644   1.272       .  A
C1643      O1645   1.269       .  A
C1643      C1673   1.491       .  S
C1644      C1701   1.492       .  S
C1646      C1855   1.479       .  S
Fe1647     O1663   2.069       .  S
Fe1647     O1653   2.052       .  S
Fe1647     O1660   2.059       .  S
Fe1647     O1652   2.078       .  S
Fe1647     O1658   1.967       .  S
Fe1648     O1651   2.067       .  S
Fe1648     O1655   2.067       .  S
Fe1648     O1659   2.071       .  S
Fe1648     O1664   2.068       .  S
Fe1648     O1658   1.972       .  S
Fe1649     O1667   2.057       .  S
Fe1649     O1654   2.066       .  S
Fe1649     O1661   2.070       .  S
Fe1649     O1650   2.059       .  S
Fe1649     O1658   1.972       .  S
O1650      C1657   1.268       .  A
O1651      C1665   1.273       .  A
O1652      C1657   1.272       .  A
O1653      C1656   1.266       .  A
O1654      C1666   1.269       .  A
O1655      C1668   1.269       .  A
C1656      O1661   1.269       .  A
C1656      C1743   1.476       .  S
C1657      C1785   1.486       .  S
O1659      C1662   1.270       .  A
O1660      C1662   1.271       .  A
C1662      C1771   1.484       .  S
O1663      C1668   1.268       .  A
O1664      C1666   1.268       .  A
C1665      O1667   1.269       .  A
C1665      C1687   1.482       .  S
C1666      C1670   1.496       .  S
C1668      C1757   1.477       .  S
C1669      C1670   1.409       .  A
C1669      C1674   1.400       .  A
C1669      H1676   1.084       .  S
C1670      C1671   1.417       .  A
C1671      C1672   1.403       .  A
C1671      N1678   1.429       .  S
C1672      C1673   1.406       .  A
C1672      H1677   1.084       .  S
C1673      C1674   1.414       .  A
C1674      N1675   1.430       .  S
N1675      O1679   1.262       .  A
N1675      O1680   1.262       .  A
N1678      O1682   1.262       .  A
N1678      O1681   1.262       .  A
C1683      C1684   1.407       .  A
C1683      C1688   1.399       .  A
C1683      H1690   1.084       .  S
C1684      C1685   1.418       .  A
C1685      C1686   1.399       .  A
C1685      N1692   1.431       .  S
C1686      C1687   1.401       .  A
C1686      H1691   1.084       .  S
C1687      C1688   1.412       .  A
C1688      N1689   1.429       .  S
N1689      O1693   1.262       .  A
N1689      O1694   1.262       .  A
N1692      O1696   1.262       .  A
N1692      O1695   1.262       .  A
C1697      C1698   1.407       .  A
C1697      C1702   1.401       .  A
C1697      H1704   1.083       .  S
C1698      C1699   1.415       .  A
C1699      C1700   1.402       .  A
C1699      N1706   1.429       .  S
C1700      C1701   1.407       .  A
C1700      H1705   1.083       .  S
C1701      C1702   1.415       .  A
C1702      N1703   1.430       .  S
N1703      O1707   1.262       .  A
N1703      O1708   1.262       .  A
N1706      O1710   1.262       .  A
N1706      O1709   1.262       .  A
C1711      C2096   1.409   1_554  A
C1711      C1716   1.401       .  A
C1711      H1718   1.083       .  S
C1712      C2095   1.408       .  A
C1713      C1714   1.400       .  A
C1713      N1720   1.430       .  S
C1714      C2099   1.400       .  A
C1714      H1719   1.084       .  S
C1715      C2098   1.403   1_554  A
C1716      N1717   1.430       .  S
N1717      O1721   1.262       .  A
N1717      O1722   1.262       .  A
N1720      O1724   1.262       .  A
N1720      O1723   1.262       .  A
C1725      C1730   1.404       .  A
C1725      H1732   1.084       .  S
C1726      C1727   1.411       .  A
C1727      C1728   1.397   1_655  A
C1727      N1734   1.428       .  S
C1728      H1733   1.083       .  S
C1729      C1730   1.416       .  A
C1730      N1731   1.428       .  S
N1731      O1735   1.262       .  A
N1731      O1736   1.262       .  A
N1734      O1738   1.262       .  A
N1734      O1737   1.262       .  A
C1739      C1740   1.403       .  A
C1739      C1744   1.397       .  A
C1739      H1746   1.080       .  S
C1740      C1741   1.413       .  A
C1741      C1742   1.399       .  A
C1741      N1748   1.430       .  S
C1742      C1743   1.403       .  A
C1742      H1747   1.081       .  S
C1743      C1744   1.410       .  A
C1744      N1745   1.429       .  S
N1745      O1749   1.262       .  A
N1745      O1750   1.262       .  A
N1748      O1752   1.262       .  A
N1748      O1751   1.262       .  A
C1753      C2138   1.402       .  A
C1753      C1758   1.402       .  A
C1753      H1760   1.084       .  S
C1754      C2137   1.402   1_554  A
C1754      C1755   1.408       .  A
C1755      C1756   1.404       .  A
C1755      N1762   1.428       .  S
C1756      C2141   1.406   1_554  A
C1756      H1761   1.083       .  S
C1757      C2140   1.404       .  A
C1757      C1758   1.411       .  A
C1758      N1759   1.429       .  S
N1759      O1763   1.262       .  A
N1759      O1764   1.262       .  A
N1762      O1766   1.262       .  A
N1762      O1765   1.262       .  A
C1767      C2536   1.401   1_545  A
C1767      C1772   1.402       .  A
C1767      H1774   1.084       .  S
C1768      C2535   1.401       .  A
C1768      C2153   1.411   1_554  A
C1769      C2152   1.404       .  A
C1769      C1770   1.396       .  A
C1769      N1776   1.429       .  S
C1770      C2539   1.407       .  A
C1770      H1775   1.084       .  S
C1771      C2538   1.405   1_545  A
C1771      C2156   1.417       .  A
C1772      C2155   1.415   1_554  A
C1772      N1773   1.430       .  S
N1773      O1777   1.262       .  A
N1773      O1778   1.262       .  A
N1776      O1780   1.262       .  A
N1776      O1779   1.262       .  A
C1781      C1782   1.401       .  A
C1781      C2554   1.402       .  A
C1781      H1788   1.084       .  S
C1782      C1783   1.410       .  A
C1783      C2552   1.401       .  A
C1783      N1790   1.430       .  S
C1784      C2551   1.399   1_545  A
C1784      C1785   1.406       .  A
C1784      H1789   1.084       .  S
C1785      C1786   1.415       .  A
C1786      C2549   1.403   1_545  A
C1786      N1787   1.430       .  S
N1787      O1791   1.262       .  A
N1787      O1792   1.262       .  A
N1790      O1794   1.262       .  A
N1790      O1793   1.262       .  A
C1795      C1796   1.404       .  A
C1795      H1802   1.084       .  S
C1796      C1797   1.415       .  A
C1797      N1804   1.429       .  S
C1798      C1799   1.403       .  A
C1798      H1803   1.084       .  S
C1799      C1800   1.410       .  A
C1800      N1801   1.429       .  S
N1801      O1805   1.262       .  A
N1801      O1806   1.262       .  A
N1804      O1808   1.262       .  A
N1804      O1807   1.262       .  A
C1809      C2194   1.404       .  A
C1809      C1814   1.400       .  A
C1809      H1816   1.084       .  S
C1810      C2193   1.407   1_554  A
C1811      C1812   1.399       .  A
C1811      N1818   1.429       .  S
C1812      C2197   1.403   1_554  A
C1812      H1817   1.084       .  S
C1813      C2196   1.403       .  A
C1814      N1815   1.430       .  S
N1815      O1819   1.262       .  A
N1818      O1822   1.262       .  A
N1818      O1821   1.262       .  A
C1823      C1824   1.407       .  A
C1823      C1828   1.401       .  A
C1823      H1830   1.083       .  S
C1824      C1825   1.418       .  A
C1825      C1826   1.395       .  A
C1825      N1832   1.430       .  S
C1826      C1827   1.401       .  A
C1826      H1831   1.084       .  S
C1827      C1828   1.414       .  A
C1828      N1829   1.429       .  S
N1829      O1833   1.262       .  A
N1829      O1834   1.262       .  A
N1832      O1836   1.261       .  A
N1832      O1835   1.262       .  A
C1837      C1838   1.402       .  A
C1837      C2610   1.399       .  A
C1837      H2612   1.084       .  S
C1838      C1839   1.407       .  A
C1839      C1840   1.401       .  A
C1839      N1846   1.429       .  S
C1840      C2609   1.407       .  A
C1840      H1845   1.084       .  S
C1841      C2608   1.407       .  A
C1841      C1842   1.416       .  A
C1842      C2605   1.401   1_545  A
C1842      N1843   1.432       .  S
N1843      O1847   1.262   1_545  A
N1843      O1848   1.262       .  A
H1844      C2605   1.084       .  S
N1846      O1850   1.262       .  A
N1846      O1849   1.262       .  A
C1851      C1852   1.403       .  A
C1851      C3008   1.397   1_554  A
C1851      H1858   1.084       .  S
C1852      C1853   1.411       .  A
C1853      C3006   1.402   1_554  A
C1853      N1860   1.428       .  S
C1854      C3005   1.401   1_545  A
C1854      C1855   1.404       .  A
C1854      H1859   1.084       .  S
C1855      C1856   1.414       .  A
C1856      C3003   1.396   1_545  A
C1856      N1857   1.430       .  S
N1857      O2629   1.262       .  A
N1857      O1862   1.262       .  A
N1860      O1864   1.262   1_554  A
N1860      O2631   1.262       .  A
O1861      N2625   1.262       .  A
O1863      N2628   1.262       .  A
C1865      C1866   1.401       .  A
C1865      C2254   1.401   1_554  A
C1865      H1872   1.084       .  S
C1866      C1867   1.415       .  A
C1867      C2252   1.399   1_554  A
C1867      N1874   1.430       .  S
C1868      C2251   1.399       .  A
C1868      C1869   1.405       .  A
C1868      H1873   1.084       .  S
C1869      C1870   1.415       .  A
C1870      C2249   1.402       .  A
C1870      N1871   1.424       .  S
N1871      O1875   1.262       .  A
N1871      O1876   1.262       .  A
N1874      O1878   1.262       .  A
N1874      O1877   1.262       .  A
C1879      C1880   1.407       .  A
C1879      C1884   1.401       .  A
C1879      H1886   1.084       .  S
C1880      C1881   1.413       .  A
C1881      C1882   1.400       .  A
C1881      N1888   1.430       .  S
C1882      C1883   1.403       .  A
C1882      H1887   1.084       .  S
C1883      C1884   1.410       .  A
C1884      N1885   1.429       .  S
N1885      O1889   1.262       .  A
N1885      O1890   1.262       .  A
N1888      O1892   1.262       .  A
N1888      O1891   1.262       .  A
C1893      C1894   1.408       .  A
C1893      C1898   1.403       .  A
C1893      H1900   1.083       .  S
C1894      C1895   1.416       .  A
C1895      C1896   1.402       .  A
C1895      N1902   1.429       .  S
C1896      C1897   1.406       .  A
C1896      H1901   1.083       .  S
C1897      C1898   1.415       .  A
C1898      N1899   1.429       .  S
N1899      O1903   1.262       .  A
N1899      O1904   1.262       .  A
N1902      O1906   1.261       .  A
N1902      O1905   1.262       .  A
C1907      C1908   1.406       .  A
C1907      C1912   1.403       .  A
C1907      H1914   1.084       .  S
C1908      C1909   1.417       .  A
C1909      C1910   1.400       .  A
C1909      N1916   1.429       .  S
C1910      C1911   1.404       .  A
C1910      H1915   1.084       .  S
C1911      C1912   1.415       .  A
C1912      N1913   1.434       .  S
N1913      O1917   1.262       .  A
N1913      O1918   1.263       .  A
N1916      O1920   1.262       .  A
N1916      O1919   1.262       .  A
Fe1921     O1937   2.063       .  S
Fe1921     O1927   2.054       .  S
Fe1921     O1934   2.068       .  S
Fe1921     O1926   2.057       .  S
Fe1921     O1932   1.962       .  S
Fe1922     O1925   2.055       .  S
Fe1922     O1929   2.083       .  S
Fe1922     O1933   2.058       .  S
Fe1922     O1938   2.066       .  S
Fe1922     O1932   1.960       .  S
Fe1923     O1941   2.084       .  S
Fe1923     O1928   2.070       .  S
Fe1923     O1935   2.076       .  S
Fe1923     O1924   2.083       .  S
Fe1923     O1932   1.963       .  S
O1924      C1931   1.274       .  A
O1925      C1939   1.270       .  A
O1926      C1931   1.272       .  A
O1927      C1930   1.265       .  A
O1928      C1940   1.269       .  A
O1929      C1942   1.272       .  A
C1930      O1935   1.270       .  A
C1930      C2250   1.481       .  S
C1931      C2236   1.476       .  S
O1933      C1936   1.266       .  A
O1934      C1936   1.268       .  A
C1936      C2222   1.471       .  S
O1937      C1942   1.270       .  A
O1938      C1940   1.269       .  A
C1939      O1941   1.275       .  A
C1939      C2292   1.487       .  S
C1940      C2278   1.494       .  S
C1942      C2264   1.484       .  S
Fe1943     O1959   2.068       .  S
Fe1943     O1949   2.075       .  S
Fe1943     O1956   2.062       .  S
Fe1943     O1948   2.067       .  S
Fe1943     O1954   1.974       .  S
Fe1944     O1947   2.068       .  S
Fe1944     O1951   2.067       .  S
Fe1944     O1955   2.070       .  S
Fe1944     O1960   2.057       .  S
Fe1944     O1954   1.972       .  S
Fe1945     O1963   2.064       .  S
Fe1945     O1950   2.063       .  S
Fe1945     O1957   2.057       .  S
Fe1945     O1946   2.062       .  S
Fe1945     O1954   1.979       .  S
O1946      C1953   1.267       .  A
O1947      C1961   1.269       .  A
O1948      C1953   1.269       .  A
O1949      C1952   1.270       .  A
O1950      C1962   1.267       .  A
O1951      C1964   1.269       .  A
C1952      O1957   1.267       .  A
C1952      C2152   1.468       .  S
C1953      C2194   1.478       .  S
O1955      C1958   1.269       .  A
O1956      C1958   1.269       .  A
C1958      C2180   1.482       .  S
O1959      C1964   1.270       .  A
O1960      C1962   1.269       .  A
C1961      O1963   1.270       .  A
C1961      C2281   1.493       .  S
C1962      C2211   1.488       .  S
C1964      C2166   1.481       .  S
Fe1965     O1981   2.075       .  S
Fe1965     O1971   2.058       .  S
Fe1965     O1978   2.066       .  S
Fe1965     O1970   2.069       .  S
Fe1965     O1976   1.957       .  S
Fe1966     O1969   2.071       .  S
Fe1966     O1973   2.059       .  S
Fe1966     O1977   2.069       .  S
Fe1966     O1982   2.063       .  S
Fe1966     O1976   1.965       .  S
Fe1967     O1985   2.059       .  S
Fe1967     O1972   2.064       .  S
Fe1967     O1979   2.077       .  S
Fe1967     O1968   2.061       .  S
Fe1967     O1976   1.967       .  S
O1968      C1975   1.268       .  A
O1969      C1983   1.272       .  A
O1970      C1975   1.272       .  A
O1971      C1974   1.268       .  A
O1972      C1984   1.267       .  A
O1973      C1986   1.268       .  A
C1974      O1979   1.269       .  A
C1974      C2124   1.484       .  S
C1975      C2113   1.481       .  S
O1977      C1980   1.269       .  A
O1978      C1980   1.269       .  A
C1980      C2099   1.471       .  S
O1981      C1986   1.270       .  A
O1982      C1984   1.268       .  A
C1983      O1985   1.270       .  A
C1983      C2295   1.483       .  S
C1984      C2208   1.489       .  S
C1986      C2138   1.473       .  S
Fe1987     O2003   2.061       .  S
Fe1987     O1993   2.077       .  S
Fe1987     O2000   2.076       .  S
Fe1987     O1992   2.061       .  S
Fe1987     O1998   1.955       .  S
Fe1988     O1991   2.060       .  S
Fe1988     O1995   2.086       .  S
Fe1988     O1999   2.064       .  S
Fe1988     O2004   2.079       .  S
Fe1988     O1998   1.953       .  S
Fe1989     O2007   2.075       .  S
Fe1989     O1994   2.068       .  S
Fe1989     O2001   2.061       .  S
Fe1989     O1990   2.081       .  S
Fe1989     O1998   1.958       .  S
O1990      C1997   1.273       .  A
O1991      C2005   1.270       .  A
O1992      C1997   1.270       .  A
O1993      C1996   1.271       .  A
O1994      C2006   1.271       .  A
O1995      C2008   1.274       .  A
C1996      O2001   1.268       .  A
C1996      C2253   1.487       .  S
C1997      C2197   1.476       .  S
O1999      C2002   1.268       .  A
O2000      C2002   1.270       .  A
C2002      C2183   1.480       .  S
O2003      C2008   1.270       .  A
O2004      C2006   1.273       .  A
C2005      O2007   1.270       .  A
C2005      C2068   1.485       .  S
C2006      C2082   1.494       .  S
C2008      C2267   1.487       .  S
Fe2009     O2025   2.076       .  S
Fe2009     O2015   2.056       .  S
Fe2009     O2022   2.059       .  S
Fe2009     O2014   2.071       .  S
Fe2009     O2020   1.962       .  S
Fe2010     O2013   2.077       .  S
Fe2010     O2017   2.060       .  S
Fe2010     O2021   2.080       .  S
Fe2010     O2026   2.067       .  S
Fe2010     O2020   1.958       .  S
Fe2011     O2029   2.059       .  S
Fe2011     O2016   2.079       .  S
Fe2011     O2023   2.080       .  S
Fe2011     O2012   2.060       .  S
Fe2011     O2020   1.958       .  S
O2012      C2019   1.268       .  A
O2013      C2027   1.271       .  A
O2014      C2019   1.270       .  A
O2015      C2018   1.268       .  A
O2016      C2028   1.272       .  A
O2017      C2030   1.269       .  A
C2018      O2023   1.273       .  A
C2018      C2225   1.481       .  S
C2019      C2110   1.473       .  S
O2021      C2024   1.273       .  A
O2022      C2024   1.269       .  A
C2024      C2096   1.488       .  S
O2025      C2030   1.271       .  A
O2026      C2028   1.272       .  A
C2027      O2029   1.268       .  A
C2027      C2057   1.488       .  S
C2028      C2085   1.494       .  S
C2030      C2239   1.477       .  S
Fe2031     O2047   2.072       .  S
Fe2031     O2037   2.060       .  S
Fe2031     O2044   2.065       .  S
Fe2031     O2036   2.081       .  S
Fe2031     O2042   1.973       .  S
Fe2032     O2035   2.066       .  S
Fe2032     O2039   2.074       .  S
Fe2032     O2043   2.067       .  S
Fe2032     O2048   2.079       .  S
Fe2032     O2042   1.981       .  S
Fe2033     O2051   2.055       .  S
Fe2033     O2038   2.059       .  S
Fe2033     O2045   2.068       .  S
Fe2033     O2034   2.055       .  S
Fe2033     O2042   1.979       .  S
O2034      C2041   1.267       .  A
O2035      C2049   1.272       .  A
O2036      C2041   1.273       .  A
O2037      C2040   1.267       .  A
O2038      C2050   1.268       .  A
O2039      C2052   1.270       .  A
C2040      O2045   1.268       .  A
C2040      C2127   1.478       .  S
C2041      C2169   1.487       .  S
O2043      C2046   1.270       .  A
O2044      C2046   1.271       .  A
C2046      C2155   1.479       .  S
O2047      C2052   1.269       .  A
O2048      C2050   1.270       .  A
C2049      O2051   1.268       .  A
C2049      C2071   1.484       .  S
C2050      C2054   1.496       .  S
C2052      C2141   1.485       .  S
C2053      C2054   1.409       .  A
C2053      C2058   1.399       .  A
C2053      H2060   1.083       .  S
C2054      C2055   1.416       .  A
C2055      C2056   1.404       .  A
C2055      N2062   1.428       .  S
C2056      C2057   1.406       .  A
C2056      H2061   1.084       .  S
C2057      C2058   1.413       .  A
C2058      N2059   1.430       .  S
N2059      O2063   1.262       .  A
N2059      O2064   1.262       .  A
N2062      O2066   1.262       .  A
N2062      O2065   1.262       .  A
C2067      C2068   1.406       .  A
C2067      C2072   1.398       .  A
C2067      H2074   1.084       .  S
C2068      C2069   1.416       .  A
C2069      C2070   1.399       .  A
C2069      N2076   1.430       .  S
C2070      C2071   1.403       .  A
C2070      H2075   1.084       .  S
C2071      C2072   1.414       .  A
C2072      N2073   1.429       .  S
N2073      O2077   1.262       .  A
N2073      O2078   1.262       .  A
N2076      O2080   1.262       .  A
N2076      O2079   1.262       .  A
C2081      C2082   1.407       .  A
C2081      C2086   1.401       .  A
C2081      H2088   1.083       .  S
C2082      C2083   1.416       .  A
C2083      C2084   1.403       .  A
C2083      N2090   1.429       .  S
C2084      C2085   1.407       .  A
C2084      H2089   1.083       .  S
C2085      C2086   1.415       .  A
C2086      N2087   1.429       .  S
N2087      O2091   1.262       .  A
N2087      O2092   1.262       .  A
N2090      O2094   1.262       .  A
N2090      O2093   1.262       .  A
C2095      C2100   1.401       .  A
C2095      H2102   1.084       .  S
C2097      C2098   1.401       .  A
C2097      N2104   1.430       .  S
C2098      H2103   1.084       .  S
C2100      N2101   1.430       .  S
N2101      O2105   1.262       .  A
N2101      O2106   1.262       .  A
N2104      O2108   1.262       .  A
N2104      O2107   1.262       .  A
C2109      C2114   1.403       .  A
C2109      H2116   1.083       .  S
C2110      C2111   1.408       .  A
C2111      C2112   1.396   1_655  A
C2111      N2118   1.429       .  S
C2112      H2117   1.083       .  S
C2113      C2114   1.415       .  A
C2114      N2115   1.430       .  S
N2115      O2119   1.262       .  A
N2115      O2120   1.262       .  A
N2118      O2122   1.262       .  A
N2118      O2121   1.262       .  A
C2123      C2124   1.405       .  A
C2123      C2128   1.400       .  A
C2123      H2130   1.077       .  S
C2124      C2125   1.414       .  A
C2125      C2126   1.401       .  A
C2125      N2132   1.429       .  S
C2126      C2127   1.403       .  A
C2126      H2131   1.078       .  S
C2127      C2128   1.410       .  A
C2128      N2129   1.429       .  S
N2129      O2133   1.262       .  A
N2129      O2134   1.262       .  A
N2132      O2136   1.262       .  A
N2132      O2135   1.262       .  A
C2137      C2142   1.403       .  A
C2137      H2144   1.084       .  S
C2138      C2139   1.408       .  A
C2139      C2140   1.402       .  A
C2139      N2146   1.428       .  S
C2140      H2145   1.084       .  S
C2141      C2142   1.412       .  A
C2142      N2143   1.428       .  S
N2143      O2147   1.262       .  A
N2143      O2148   1.262       .  A
N2146      O2150   1.262       .  A
N2146      O2149   1.262       .  A
C2151      C2920   1.400   1_545  A
C2151      C2156   1.403       .  A
C2151      H2158   1.084       .  S
C2152      C2919   1.401       .  A
C2153      C2154   1.398       .  A
C2153      N2160   1.430       .  S
C2154      C2923   1.402       .  A
C2154      H2159   1.084       .  S
C2155      C2922   1.403   1_545  A
C2156      N2157   1.429       .  S
N2157      O2161   1.262       .  A
N2157      O2162   1.262       .  A
N2160      O2164   1.262       .  A
N2160      O2163   1.262       .  A
C2165      C2166   1.405       .  A
C2165      C2938   1.403       .  A
C2165      H2172   1.084       .  S
C2166      C2167   1.411       .  A
C2167      C2936   1.400       .  A
C2167      N2174   1.429       .  S
C2168      C2935   1.400   1_545  A
C2168      C2169   1.406       .  A
C2168      H2173   1.084       .  S
C2169      C2170   1.417       .  A
C2170      C2933   1.402   1_545  A
C2170      N2171   1.429       .  S
N2171      O2175   1.262       .  A
N2171      O2176   1.262       .  A
N2174      O2178   1.262       .  A
N2174      O2177   1.262       .  A
C2179      C2180   1.402       .  A
C2179      H2186   1.084       .  S
C2180      C2181   1.413       .  A
C2181      N2188   1.429       .  S
C2182      C2183   1.404       .  A
C2182      H2187   1.084       .  S
C2183      C2184   1.411       .  A
C2184      N2185   1.430       .  S
N2185      O2189   1.262       .  A
N2185      O2190   1.262       .  A
N2188      O2192   1.262       .  A
N2188      O2191   1.262       .  A
C2193      C2198   1.402       .  A
C2193      H2200   1.084       .  S
C2195      C2196   1.399       .  A
C2195      N2202   1.430       .  S
C2196      H2201   1.084       .  S
C2198      N2199   1.429       .  S
N2199      O2203   1.262       .  A
N2202      O2206   1.262       .  A
N2202      O2205   1.262       .  A
C2207      C2208   1.408       .  A
C2207      C2212   1.403       .  A
C2207      H2214   1.083       .  S
C2208      C2209   1.416       .  A
C2209      C2210   1.395       .  A
C2209      N2216   1.430       .  S
C2210      C2211   1.404       .  A
C2210      H2215   1.084       .  S
C2211      C2212   1.414       .  A
C2212      N2213   1.429       .  S
N2213      O2217   1.262       .  A
N2213      O2218   1.262       .  A
N2216      O2220   1.261       .  A
N2216      O2219   1.262       .  A
C2221      C2222   1.401       .  A
C2221      C2994   1.398       .  A
C2221      H2996   1.084       .  S
C2222      C2223   1.407       .  A
C2223      C2224   1.401       .  A
C2223      N2230   1.430       .  S
C2224      C2993   1.408       .  A
C2224      H2229   1.084       .  S
C2225      C2992   1.407       .  A
C2225      C2226   1.416       .  A
C2226      C2989   1.399   1_545  A
C2226      N2227   1.433       .  S
N2227      O2231   1.262       .  A
N2227      O2232   1.262       .  A
H2228      C2989   1.084       .  S
N2230      O2234   1.262       .  A
N2230      O2233   1.262       .  A
C2235      C2236   1.402       .  A
C2235      C2624   1.398       .  A
C2235      H2242   1.084       .  S
C2236      C2237   1.410       .  A
C2237      C2622   1.402       .  A
C2237      N2244   1.427       .  S
C2238      C2621   1.402   1_546  A
C2238      C2239   1.404       .  A
C2238      H2243   1.084       .  S
C2239      C2240   1.411       .  A
C2240      C2619   1.399   1_546  A
C2240      N2241   1.430       .  S
N2241      O3013   1.262   1_556  A
N2241      O2246   1.262       .  A
N2244      O2248   1.261       .  A
N2244      O3015   1.262       .  A
O2245      N3009   1.262   1_554  A
O2247      N3012   1.262       .  A
C2249      C2250   1.400       .  A
C2249      H2256   1.084       .  S
C2250      C2251   1.414       .  A
C2251      N2258   1.430       .  S
C2252      C2253   1.404       .  A
C2252      H2257   1.084       .  S
C2253      C2254   1.413       .  A
C2254      N2255   1.425       .  S
N2255      O2259   1.262   1_556  A
N2255      O2260   1.262       .  A
N2258      O2262   1.262       .  A
N2258      O2261   1.262       .  A
C2263      C2264   1.405       .  A
C2263      C2268   1.402       .  A
C2263      H2270   1.084       .  S
C2264      C2265   1.411       .  A
C2265      C2266   1.402       .  A
C2265      N2272   1.430       .  S
C2266      C2267   1.406       .  A
C2266      H2271   1.084       .  S
C2267      C2268   1.413       .  A
C2268      N2269   1.429       .  S
N2269      O2273   1.262       .  A
N2269      O2274   1.262       .  A
N2272      O2276   1.262       .  A
N2272      O2275   1.262       .  A
C2277      C2278   1.409       .  A
C2277      C2282   1.402       .  A
C2277      H2284   1.083       .  S
C2278      C2279   1.416       .  A
C2279      C2280   1.401       .  A
C2279      N2286   1.429       .  S
C2280      C2281   1.407       .  A
C2280      H2285   1.083       .  S
C2281      C2282   1.414       .  A
C2282      N2283   1.429       .  S
N2283      O2287   1.262       .  A
N2283      O2288   1.262       .  A
N2286      O2290   1.262       .  A
N2286      O2289   1.262       .  A
C2291      C2292   1.406       .  A
C2291      C2296   1.404       .  A
C2291      H2298   1.084       .  S
C2292      C2293   1.416       .  A
C2293      C2294   1.398       .  A
C2293      N2300   1.430       .  S
C2294      C2295   1.403       .  A
C2294      H2299   1.084       .  S
C2295      C2296   1.414       .  A
C2296      N2297   1.434       .  S
N2297      O2301   1.262       .  A
N2297      O2302   1.263       .  A
N2300      O2304   1.262       .  A
N2300      O2303   1.262       .  A
Fe2305     O2321   2.056       .  S
Fe2305     O2311   2.058       .  S
Fe2305     O2318   2.072       .  S
Fe2305     O2310   2.055       .  S
Fe2305     O2316   1.967       .  S
Fe2306     O2309   2.058       .  S
Fe2306     O2313   2.082       .  S
Fe2306     O2317   2.062       .  S
Fe2306     O2322   2.070       .  S
Fe2306     O2316   1.962       .  S
Fe2307     O2325   2.086       .  S
Fe2307     O2312   2.074       .  S
Fe2307     O2319   2.076       .  S
Fe2307     O2308   2.085       .  S
Fe2307     O2316   1.966       .  S
O2308      C2315   1.274       .  A
O2309      C2323   1.269       .  A
O2310      C2315   1.271       .  A
O2311      C2314   1.266       .  A
O2312      C2324   1.270       .  A
O2313      C2326   1.273       .  A
C2314      O2319   1.271       .  A
C2314      C2634   1.485       .  S
C2315      C2620   1.480       .  S
O2317      C2320   1.267       .  A
O2318      C2320   1.269       .  A
C2320      C2606   1.477       .  S
O2321      C2326   1.268       .  A
O2322      C2324   1.271       .  A
C2323      O2325   1.275       .  A
C2323      C2676   1.492       .  S
C2324      C2662   1.497       .  S
C2326      C2648   1.484       .  S
Fe2327     O2343   2.070       .  S
Fe2327     O2333   2.068       .  S
Fe2327     O2340   2.058       .  S
Fe2327     O2332   2.071       .  S
Fe2327     O2338   1.976       .  S
Fe2328     O2331   2.073       .  S
Fe2328     O2335   2.064       .  S
Fe2328     O2339   2.073       .  S
Fe2328     O2344   2.052       .  S
Fe2328     O2338   1.976       .  S
Fe2329     O2347   2.069       .  S
Fe2329     O2334   2.063       .  S
Fe2329     O2341   2.060       .  S
Fe2329     O2330   2.061       .  S
Fe2329     O2338   1.981       .  S
O2330      C2337   1.268       .  A
O2331      C2345   1.270       .  A
O2332      C2337   1.269       .  A
O2333      C2336   1.270       .  A
O2334      C2346   1.267       .  A
O2335      C2348   1.268       .  A
C2336      O2341   1.268       .  A
C2336      C2536   1.472       .  S
C2337      C2578   1.482       .  S
O2339      C2342   1.270       .  A
O2340      C2342   1.269       .  A
C2342      C2564   1.480       .  S
O2343      C2348   1.269       .  A
O2344      C2346   1.267       .  A
C2345      O2347   1.271       .  A
C2345      C2665   1.497       .  S
C2346      C2595   1.483       .  S
C2348      C2550   1.481       .  S
Fe2349     O2365   2.080       .  S
Fe2349     O2355   2.056       .  S
Fe2349     O2362   2.063       .  S
Fe2349     O2354   2.080       .  S
Fe2349     O2360   1.961       .  S
Fe2350     O2353   2.071       .  S
Fe2350     O2357   2.068       .  S
Fe2350     O2361   2.067       .  S
Fe2350     O2366   2.071       .  S
Fe2350     O2360   1.969       .  S
Fe2351     O2369   2.069       .  S
Fe2351     O2356   2.046       .  S
Fe2351     O2363   2.060       .  S
Fe2351     O2352   2.066       .  S
Fe2351     O2360   1.967       .  S
O2352      C2359   1.269       .  A
O2353      C2367   1.272       .  A
O2354      C2359   1.274       .  A
O2355      C2358   1.266       .  A
O2356      C2368   1.263       .  A
O2357      C2370   1.270       .  A
C2358      O2363   1.266       .  A
C2358      C2508   1.473       .  S
C2359      C2497   1.483       .  S
O2361      C2364   1.269       .  A
O2362      C2364   1.269       .  A
C2364      C2483   1.473       .  S
O2365      C2370   1.272       .  A
O2366      C2368   1.270       .  A
C2367      O2369   1.272       .  A
C2367      C2679   1.487       .  S
C2368      C2592   1.487       .  S
C2370      C2522   1.479       .  S
Fe2371     O2387   2.057       .  S
Fe2371     O2377   2.075       .  S
Fe2371     O2384   2.074       .  S
Fe2371     O2376   2.060       .  S
Fe2371     O2382   1.956       .  S
Fe2372     O2375   2.062       .  S
Fe2372     O2379   2.085       .  S
Fe2372     O2383   2.060       .  S
Fe2372     O2388   2.074       .  S
Fe2372     O2382   1.954       .  S
Fe2373     O2391   2.074       .  S
Fe2373     O2378   2.072       .  S
Fe2373     O2385   2.066       .  S
Fe2373     O2374   2.078       .  S
Fe2373     O2382   1.956       .  S
O2374      C2381   1.274       .  A
O2375      C2389   1.271       .  A
O2376      C2381   1.270       .  A
O2377      C2380   1.270       .  A
O2378      C2390   1.271       .  A
O2379      C2392   1.274       .  A
C2380      O2385   1.268       .  A
C2380      C2637   1.490       .  S
C2381      C2581   1.475       .  S
O2383      C2386   1.267       .  A
O2384      C2386   1.269       .  A
C2386      C2567   1.476       .  S
O2387      C2392   1.270       .  A
O2388      C2390   1.272       .  A
C2389      O2391   1.270       .  A
C2389      C2452   1.487       .  S
C2390      C2466   1.496       .  S
C2392      C2651   1.479       .  S
Fe2393     O2409   2.069       .  S
Fe2393     O2399   2.057       .  S
Fe2393     O2406   2.057       .  S
Fe2393     O2398   2.067       .  S
Fe2393     O2404   1.967       .  S
Fe2394     O2397   2.073       .  S
Fe2394     O2401   2.065       .  S
Fe2394     O2405   2.075       .  S
Fe2394     O2410   2.071       .  S
Fe2394     O2404   1.965       .  S
Fe2395     O2413   2.062       .  S
Fe2395     O2400   2.073       .  S
Fe2395     O2407   2.074       .  S
Fe2395     O2396   2.063       .  S
Fe2395     O2404   1.962       .  S
O2396      C2403   1.268       .  A
O2397      C2411   1.271       .  A
O2398      C2403   1.269       .  A
O2399      C2402   1.268       .  A
O2400      C2412   1.271       .  A
O2401      C2414   1.270       .  A
C2402      O2407   1.272       .  A
C2402      C2609   1.482       .  S
C2403      C2494   1.478       .  S
O2405      C2408   1.272       .  A
O2406      C2408   1.268       .  A
C2408      C2480   1.487       .  S
O2409      C2414   1.269       .  A
O2410      C2412   1.272       .  A
C2411      O2413   1.268       .  A
C2411      C2441   1.492       .  S
C2412      C2469   1.495       .  S
C2414      C2623   1.480       .  S
Fe2415     O2431   2.072       .  S
Fe2415     O2421   2.048       .  S
Fe2415     O2428   2.055       .  S
Fe2415     O2420   2.079       .  S
Fe2415     O2426   1.973       .  S
Fe2416     O2419   2.069       .  S
Fe2416     O2423   2.070       .  S
Fe2416     O2427   2.074       .  S
Fe2416     O2432   2.068       .  S
Fe2416     O2426   1.979       .  S
Fe2417     O2435   2.058       .  S
Fe2417     O2422   2.064       .  S
Fe2417     O2429   2.066       .  S
Fe2417     O2418   2.057       .  S
Fe2417     O2426   1.981       .  S
O2418      C2425   1.268       .  A
O2419      C2433   1.273       .  A
O2420      C2425   1.273       .  A
O2421      C2424   1.265       .  A
O2422      C2434   1.269       .  A
O2423      C2436   1.269       .  A
C2424      O2429   1.267       .  A
C2424      C2511   1.475       .  S
C2425      C2553   1.491       .  S
O2427      C2430   1.271       .  A
O2428      C2430   1.269       .  A
C2430      C2539   1.485       .  S
O2431      C2436   1.268       .  A
O2432      C2434   1.268       .  A
C2433      O2435   1.268       .  A
C2433      C2455   1.485       .  S
C2434      C2438   1.495       .  S
C2436      C2525   1.481       .  S
C2437      C2438   1.409       .  A
C2437      C2442   1.401       .  A
C2437      H2444   1.084       .  S
C2438      C2439   1.416       .  A
C2439      C2440   1.402       .  A
C2439      N2446   1.429       .  S
C2440      C2441   1.407       .  A
C2440      H2445   1.084       .  S
C2441      C2442   1.415       .  A
C2442      N2443   1.429       .  S
N2443      O2447   1.262       .  A
N2443      O2448   1.262       .  A
N2446      O2450   1.262       .  A
N2446      O2449   1.262       .  A
C2451      C2452   1.407       .  A
C2451      C2456   1.400       .  A
C2451      H2458   1.084       .  S
C2452      C2453   1.417       .  A
C2453      C2454   1.399       .  A
C2453      N2460   1.430       .  S
C2454      C2455   1.402       .  A
C2454      H2459   1.084       .  S
C2455      C2456   1.415       .  A
C2456      N2457   1.429       .  S
N2457      O2461   1.262       .  A
N2457      O2462   1.262       .  A
N2460      O2464   1.262       .  A
N2460      O2463   1.262       .  A
C2465      C2466   1.407       .  A
C2465      C2470   1.400       .  A
C2465      H2472   1.083       .  S
C2466      C2467   1.416       .  A
C2467      C2468   1.405       .  A
C2467      N2474   1.429       .  S
C2468      C2469   1.408       .  A
C2468      H2473   1.083       .  S
C2469      C2470   1.416       .  A
C2470      N2471   1.430       .  S
N2471      O2475   1.262       .  A
N2471      O2476   1.262       .  A
N2474      O2478   1.262       .  A
N2474      O2477   1.262       .  A
C2479      C2864   1.406   1_554  A
C2479      C2484   1.399       .  A
C2479      H2486   1.084       .  S
C2480      C2863   1.409       .  A
C2481      C2482   1.398       .  A
C2481      N2488   1.430       .  S
C2482      C2867   1.401       .  A
C2482      H2487   1.084       .  S
C2483      C2866   1.403   1_554  A
C2484      N2485   1.430       .  S
N2485      O2489   1.262       .  A
N2485      O2490   1.262       .  A
N2488      O2492   1.262       .  A
N2488      O2491   1.262       .  A
C2493      C2498   1.405       .  A
C2493      H2500   1.083       .  S
C2494      C2495   1.410       .  A
C2495      C2496   1.397   1_655  A
C2495      N2502   1.428       .  S
C2496      H2501   1.083       .  S
C2497      C2498   1.412       .  A
C2498      N2499   1.429       .  S
N2499      O2503   1.262       .  A
N2499      O2504   1.262       .  A
N2502      O2506   1.262       .  A
N2502      O2505   1.262       .  A
C2507      C2508   1.402       .  A
C2507      C2512   1.399       .  A
C2507      H2514   1.078       .  S
C2508      C2509   1.411       .  A
C2509      C2510   1.396       .  A
C2509      N2516   1.430       .  S
C2510      C2511   1.403       .  A
C2510      H2515   1.080       .  S
C2511      C2512   1.411       .  A
C2512      N2513   1.429       .  S
N2513      O2517   1.262       .  A
N2513      O2518   1.262       .  A
N2516      O2520   1.262       .  A
N2516      O2519   1.262       .  A
C2521      C2906   1.404       .  A
C2521      C2526   1.404       .  A
C2521      H2528   1.084       .  S
C2522      C2905   1.403   1_554  A
C2522      C2523   1.409       .  A
C2523      C2524   1.404       .  A
C2523      N2530   1.428       .  S
C2524      C2909   1.404   1_554  A
C2524      H2529   1.083       .  S
C2525      C2908   1.404       .  A
C2525      C2526   1.411       .  A
C2526      N2527   1.428       .  S
N2527      O2531   1.262       .  A
N2527      O2532   1.262       .  A
N2530      O2534   1.262       .  A
N2530      O2533   1.262       .  A
C2535      C2540   1.402       .  A
C2535      H2542   1.084       .  S
C2536      C2921   1.409   1_554  A
C2537      C2920   1.406       .  A
C2537      C2538   1.396       .  A
C2537      N2544   1.429       .  S
C2538      H2543   1.084       .  S
C2539      C2924   1.417       .  A
C2540      C2923   1.414   1_554  A
C2540      N2541   1.429       .  S
N2541      O2545   1.262       .  A
N2541      O2546   1.262       .  A
N2544      O2548   1.262       .  A
N2544      O2547   1.262       .  A
C2549      C2550   1.404       .  A
C2549      H2556   1.084       .  S
C2550      C2551   1.411       .  A
C2551      N2558   1.429       .  S
C2552      C2553   1.407       .  A
C2552      H2557   1.083       .  S
C2553      C2554   1.418       .  A
C2554      N2555   1.429       .  S
N2555      O2559   1.262       .  A
N2555      O2560   1.262       .  A
N2558      O2562   1.262       .  A
N2558      O2561   1.262       .  A
C2563      C2564   1.402       .  A
C2563      H2570   1.084       .  S
C2564      C2565   1.413       .  A
C2565      N2572   1.430       .  S
C2566      C2567   1.403       .  A
C2566      H2571   1.084       .  S
C2567      C2568   1.410       .  A
C2568      N2569   1.429       .  S
N2569      O2573   1.262       .  A
N2569      O2574   1.262       .  A
N2572      O2576   1.262       .  A
N2572      O2575   1.262       .  A
C2577      C2962   1.406       .  A
C2577      C2582   1.401       .  A
C2577      H2584   1.084       .  S
C2578      C2961   1.406   1_554  A
C2579      C2580   1.400       .  A
C2579      N2586   1.430       .  S
C2580      C2965   1.403   1_554  A
C2580      H2585   1.084       .  S
C2581      C2964   1.403       .  A
C2582      N2583   1.430       .  S
N2583      O2587   1.262       .  A
N2586      O2590   1.262       .  A
N2586      O2589   1.262       .  A
C2591      C2592   1.406       .  A
C2591      C2596   1.402       .  A
C2591      H2598   1.083       .  S
C2592      C2593   1.419       .  A
C2593      C2594   1.394       .  A
C2593      N2600   1.430       .  S
C2594      C2595   1.402       .  A
C2594      H2599   1.084       .  S
C2595      C2596   1.413       .  A
C2596      N2597   1.429       .  S
N2597      O2601   1.262       .  A
N2597      O2602   1.262       .  A
N2600      O2604   1.261       .  A
N2600      O2603   1.262       .  A
C2605      C2606   1.402       .  A
C2606      C2607   1.408       .  A
C2607      C2608   1.402   1_565  A
C2607      N2614   1.429       .  S
C2608      H2613   1.084       .  S
C2609      C2610   1.416       .  A
C2610      N2611   1.432       .  S
N2611      O2615   1.262       .  A
N2611      O2616   1.262       .  A
N2614      O2618   1.262       .  A
N2614      O2617   1.262       .  A
C2619      C2620   1.404       .  A
C2619      H2626   1.084       .  S
C2620      C2621   1.411       .  A
C2621      N2628   1.427       .  S
C2622      C2623   1.404       .  A
C2622      H2627   1.084       .  S
C2623      C2624   1.413       .  A
C2624      N2625   1.430       .  S
N2625      O2630   1.262       .  A
N2628      O2632   1.262   1_554  A
C2633      C2634   1.403       .  A
C2633      C3022   1.403   1_554  A
C2633      H2640   1.084       .  S
C2634      C2635   1.416       .  A
C2635      C3020   1.399   1_554  A
C2635      N2642   1.430       .  S
C2636      C3019   1.400       .  A
C2636      C2637   1.406       .  A
C2636      H2641   1.084       .  S
C2637      C2638   1.414       .  A
C2638      C3017   1.402       .  A
C2638      N2639   1.424       .  S
N2639      O2643   1.262       .  A
N2639      O2644   1.262       .  A
N2642      O2646   1.262       .  A
N2642      O2645   1.262       .  A
C2647      C2648   1.406       .  A
C2647      C2652   1.400       .  A
C2647      H2654   1.084       .  S
C2648      C2649   1.414       .  A
C2649      C2650   1.401       .  A
C2649      N2656   1.430       .  S
C2650      C2651   1.404       .  A
C2650      H2655   1.084       .  S
C2651      C2652   1.410       .  A
C2652      N2653   1.429       .  S
N2653      O2657   1.262       .  A
N2653      O2658   1.262       .  A
N2656      O2660   1.262       .  A
N2656      O2659   1.262       .  A
C2661      C2662   1.408       .  A
C2661      C2666   1.402       .  A
C2661      H2668   1.083       .  S
C2662      C2663   1.416       .  A
C2663      C2664   1.404       .  A
C2663      N2670   1.429       .  S
C2664      C2665   1.408       .  A
C2664      H2669   1.083       .  S
C2665      C2666   1.416       .  A
C2666      N2667   1.429       .  S
N2667      O2671   1.262       .  A
N2667      O2672   1.262       .  A
N2670      O2674   1.262       .  A
N2670      O2673   1.262       .  A
C2675      C2676   1.406       .  A
C2675      C2680   1.405       .  A
C2675      H2682   1.084       .  S
C2676      C2677   1.417       .  A
C2677      C2678   1.401       .  A
C2677      N2684   1.430       .  S
C2678      C2679   1.403       .  A
C2678      H2683   1.084       .  S
C2679      C2680   1.416       .  A
C2680      N2681   1.434       .  S
N2681      O2685   1.262       .  A
N2681      O2686   1.263       .  A
N2684      O2688   1.262       .  A
N2684      O2687   1.262       .  A
Fe2689     O2705   2.065       .  S
Fe2689     O2695   2.060       .  S
Fe2689     O2702   2.070       .  S
Fe2689     O2694   2.054       .  S
Fe2689     O2700   1.963       .  S
Fe2690     O2693   2.053       .  S
Fe2690     O2697   2.087       .  S
Fe2690     O2701   2.061       .  S
Fe2690     O2706   2.070       .  S
Fe2690     O2700   1.958       .  S
Fe2691     O2709   2.083       .  S
Fe2691     O2696   2.070       .  S
Fe2691     O2703   2.075       .  S
Fe2691     O2692   2.078       .  S
Fe2691     O2700   1.965       .  S
O2692      C2699   1.273       .  A
O2693      C2707   1.270       .  A
O2694      C2699   1.271       .  A
O2695      C2698   1.266       .  A
O2696      C2708   1.268       .  A
O2697      C2710   1.273       .  A
C2698      O2703   1.271       .  A
C2698      C3018   1.482       .  S
C2699      C3004   1.472       .  S
O2701      C2704   1.267       .  A
O2702      C2704   1.270       .  A
C2704      C2990   1.477       .  S
O2705      C2710   1.270       .  A
O2706      C2708   1.270       .  A
C2707      O2709   1.275       .  A
C2707      C3060   1.482       .  S
C2708      C3046   1.497       .  S
C2710      C3032   1.489       .  S
Fe2711     O2727   2.068       .  S
Fe2711     O2717   2.071       .  S
Fe2711     O2724   2.063       .  S
Fe2711     O2716   2.067       .  S
Fe2711     O2722   1.978       .  S
Fe2712     O2715   2.063       .  S
Fe2712     O2719   2.064       .  S
Fe2712     O2723   2.063       .  S
Fe2712     O2728   2.055       .  S
Fe2712     O2722   1.974       .  S
Fe2713     O2731   2.069       .  S
Fe2713     O2718   2.063       .  S
Fe2713     O2725   2.059       .  S
Fe2713     O2714   2.057       .  S
Fe2713     O2722   1.984       .  S
O2714      C2721   1.267       .  A
O2715      C2729   1.268       .  A
O2716      C2721   1.268       .  A
O2717      C2720   1.270       .  A
O2718      C2730   1.267       .  A
O2719      C2732   1.268       .  A
C2720      O2725   1.268       .  A
C2720      C2920   1.469       .  S
C2721      C2962   1.480       .  S
O2723      C2726   1.267       .  A
O2724      C2726   1.269       .  A
C2726      C2948   1.485       .  S
O2727      C2732   1.269       .  A
O2728      C2730   1.269       .  A
C2729      O2731   1.270       .  A
C2729      C3049   1.495       .  S
C2730      C2979   1.486       .  S
C2732      C2934   1.478       .  S
Fe2733     O2749   2.081       .  S
Fe2733     O2739   2.057       .  S
Fe2733     O2746   2.062       .  S
Fe2733     O2738   2.077       .  S
Fe2733     O2744   1.962       .  S
Fe2734     O2737   2.069       .  S
Fe2734     O2741   2.062       .  S
Fe2734     O2745   2.062       .  S
Fe2734     O2750   2.067       .  S
Fe2734     O2744   1.973       .  S
Fe2735     O2753   2.055       .  S
Fe2735     O2740   2.055       .  S
Fe2735     O2747   2.067       .  S
Fe2735     O2736   2.059       .  S
Fe2735     O2744   1.969       .  S
O2736      C2743   1.268       .  A
O2737      C2751   1.271       .  A
O2738      C2743   1.273       .  A
O2739      C2742   1.268       .  A
O2740      C2752   1.265       .  A
O2741      C2754   1.268       .  A
C2742      O2747   1.267       .  A
C2742      C2892   1.484       .  S
C2743      C2881   1.490       .  S
O2745      C2748   1.268       .  A
O2746      C2748   1.268       .  A
C2748      C2867   1.468       .  S
O2749      C2754   1.272       .  A
O2750      C2752   1.269       .  A
C2751      O2753   1.269       .  A
C2751      C3063   1.479       .  S
C2752      C2976   1.489       .  S
C2754      C2906   1.479       .  S
Fe2755     O2771   2.065       .  S
Fe2755     O2761   2.076       .  S
Fe2755     O2768   2.075       .  S
Fe2755     O2760   2.064       .  S
Fe2755     O2766   1.955       .  S
Fe2756     O2759   2.060       .  S
Fe2756     O2763   2.090       .  S
Fe2756     O2767   2.063       .  S
Fe2756     O2772   2.081       .  S
Fe2756     O2766   1.954       .  S
Fe2757     O2775   2.075       .  S
Fe2757     O2762   2.068       .  S
Fe2757     O2769   2.064       .  S
Fe2757     O2758   2.083       .  S
Fe2757     O2766   1.958       .  S
O2758      C2765   1.274       .  A
O2759      C2773   1.271       .  A
O2760      C2765   1.270       .  A
O2761      C2764   1.271       .  A
O2762      C2774   1.271       .  A
O2763      C2776   1.275       .  A
C2764      O2769   1.268       .  A
C2764      C3021   1.488       .  S
C2765      C2965   1.477       .  S
O2767      C2770   1.268       .  A
O2768      C2770   1.270       .  A
C2770      C2951   1.478       .  S
O2771      C2776   1.271       .  A
O2772      C2774   1.273       .  A
C2773      O2775   1.271       .  A
C2773      C2836   1.486       .  S
C2774      C2850   1.493       .  S
C2776      C3035   1.488       .  S
Fe2777     O2793   2.070       .  S
Fe2777     O2783   2.057       .  S
Fe2777     O2790   2.055       .  S
Fe2777     O2782   2.063       .  S
Fe2777     O2788   1.967       .  S
Fe2778     O2781   2.076       .  S
Fe2778     O2785   2.061       .  S
Fe2778     O2789   2.080       .  S
Fe2778     O2794   2.067       .  S
Fe2778     O2788   1.963       .  S
Fe2779     O2797   2.063       .  S
Fe2779     O2784   2.076       .  S
Fe2779     O2791   2.074       .  S
Fe2779     O2780   2.063       .  S
Fe2779     O2788   1.960       .  S
O2780      C2787   1.269       .  A
O2781      C2795   1.271       .  A
O2782      C2787   1.267       .  A
O2783      C2786   1.269       .  A
O2784      C2796   1.271       .  A
O2785      C2798   1.268       .  A
C2786      O2791   1.272       .  A
C2786      C2993   1.481       .  S
C2787      C2878   1.483       .  S
O2789      C2792   1.273       .  A
O2790      C2792   1.268       .  A
C2792      C2864   1.483       .  S
O2793      C2798   1.269       .  A
O2794      C2796   1.271       .  A
C2795      O2797   1.270       .  A
C2795      C2825   1.490       .  S
C2796      C2853   1.493       .  S
C2798      C3007   1.476       .  S
Fe2799     O2815   2.067       .  S
Fe2799     O2805   2.056       .  S
Fe2799     O2812   2.065       .  S
Fe2799     O2804   2.079       .  S
Fe2799     O2810   1.969       .  S
Fe2800     O2803   2.064       .  S
Fe2800     O2807   2.078       .  S
Fe2800     O2811   2.068       .  S
Fe2800     O2816   2.086       .  S
Fe2800     O2810   1.977       .  S
Fe2801     O2819   2.064       .  S
Fe2801     O2806   2.057       .  S
Fe2801     O2813   2.069       .  S
Fe2801     O2802   2.061       .  S
Fe2801     O2810   1.975       .  S
O2802      C2809   1.269       .  A
O2803      C2817   1.272       .  A
O2804      C2809   1.272       .  A
O2805      C2808   1.266       .  A
O2806      C2818   1.267       .  A
O2807      C2820   1.271       .  A
C2808      O2813   1.267       .  A
C2808      C2895   1.473       .  S
C2809      C2937   1.482       .  S
O2811      C2814   1.270       .  A
O2812      C2814   1.271       .  A
C2814      C2923   1.478       .  S
O2815      C2820   1.267       .  A
O2816      C2818   1.272       .  A
C2817      O2819   1.270       .  A
C2817      C2839   1.485       .  S
C2818      C2822   1.498       .  S
C2820      C2909   1.483       .  S
C2821      C2822   1.410       .  A
C2821      C2826   1.400       .  A
C2821      H2828   1.083       .  S
C2822      C2823   1.415       .  A
C2823      C2824   1.406       .  A
C2823      N2830   1.428       .  S
C2824      C2825   1.407       .  A
C2824      H2829   1.084       .  S
C2825      C2826   1.412       .  A
C2826      N2827   1.430       .  S
N2827      O2831   1.262       .  A
N2827      O2832   1.262       .  A
N2830      O2834   1.262       .  A
N2830      O2833   1.262       .  A
C2835      C2836   1.407       .  A
C2835      C2840   1.400       .  A
C2835      H2842   1.084       .  S
C2836      C2837   1.416       .  A
C2837      C2838   1.399       .  A
C2837      N2844   1.430       .  S
C2838      C2839   1.404       .  A
C2838      H2843   1.084       .  S
C2839      C2840   1.413       .  A
C2840      N2841   1.429       .  S
N2841      O2845   1.262       .  A
N2841      O2846   1.262       .  A
N2844      O2848   1.262       .  A
N2844      O2847   1.262       .  A
C2849      C2850   1.407       .  A
C2849      C2854   1.403       .  A
C2849      H2856   1.084       .  S
C2850      C2851   1.415       .  A
C2851      C2852   1.402       .  A
C2851      N2858   1.429       .  S
C2852      C2853   1.406       .  A
C2852      H2857   1.083       .  S
C2853      C2854   1.415       .  A
C2854      N2855   1.429       .  S
N2855      O2859   1.262       .  A
N2855      O2860   1.262       .  A
N2858      O2862   1.262       .  A
N2858      O2861   1.262       .  A
C2863      C2868   1.401       .  A
C2863      H2870   1.083       .  S
C2865      C2866   1.400       .  A
C2865      N2872   1.429       .  S
C2866      H2871   1.084       .  S
C2868      N2869   1.431       .  S
N2869      O2873   1.262       .  A
N2869      O2874   1.262       .  A
N2872      O2876   1.262       .  A
N2872      O2875   1.262       .  A
C2877      C2882   1.404       .  A
C2877      H2884   1.084       .  S
C2878      C2879   1.414       .  A
C2879      C2880   1.396   1_655  A
C2879      N2886   1.428       .  S
C2880      H2885   1.084       .  S
C2881      C2882   1.418       .  A
C2882      N2883   1.428       .  S
N2883      O2887   1.262       .  A
N2883      O2888   1.262       .  A
N2886      O2890   1.262       .  A
N2886      O2889   1.261       .  A
C2891      C2892   1.406       .  A
C2891      C2896   1.399       .  A
C2891      H2898   1.081       .  S
C2892      C2893   1.415       .  A
C2893      C2894   1.400       .  A
C2893      N2900   1.429       .  S
C2894      C2895   1.401       .  A
C2894      H2899   1.080       .  S
C2895      C2896   1.409       .  A
C2896      N2897   1.430       .  S
N2897      O2901   1.262       .  A
N2897      O2902   1.262       .  A
N2900      O2904   1.262       .  A
N2900      O2903   1.262       .  A
C2905      C2910   1.404       .  A
C2905      H2912   1.084       .  S
C2906      C2907   1.409       .  A
C2907      C2908   1.403       .  A
C2907      N2914   1.429       .  S
C2908      H2913   1.084       .  S
C2909      C2910   1.413       .  A
C2910      N2911   1.429       .  S
N2911      O2915   1.262       .  A
N2911      O2916   1.262       .  A
N2914      O2918   1.262       .  A
N2914      O2917   1.262       .  A
C2919      C2924   1.404       .  A
C2919      H2926   1.084       .  S
C2921      C2922   1.398       .  A
C2921      N2928   1.429       .  S
C2922      H2927   1.084       .  S
C2924      N2925   1.429       .  S
N2925      O2929   1.262       .  A
N2925      O2930   1.262       .  A
N2928      O2932   1.262       .  A
N2928      O2931   1.262       .  A
C2933      C2934   1.402       .  A
C2933      H2940   1.084       .  S
C2934      C2935   1.410       .  A
C2935      N2942   1.429       .  S
C2936      C2937   1.405       .  A
C2936      H2941   1.084       .  S
C2937      C2938   1.412       .  A
C2938      N2939   1.430       .  S
N2939      O2943   1.262       .  A
N2939      O2944   1.262       .  A
N2942      O2946   1.262       .  A
N2942      O2945   1.262       .  A
C2947      C2948   1.405       .  A
C2947      H2954   1.084       .  S
C2948      C2949   1.416       .  A
C2949      N2956   1.429       .  S
C2950      C2951   1.403       .  A
C2950      H2955   1.084       .  S
C2951      C2952   1.410       .  A
C2952      N2953   1.430       .  S
N2953      O2957   1.262       .  A
N2953      O2958   1.262       .  A
N2956      O2960   1.262       .  A
N2956      O2959   1.262       .  A
C2961      C2966   1.403       .  A
C2961      H2968   1.084       .  S
C2963      C2964   1.398       .  A
C2963      N2970   1.429       .  S
C2964      H2969   1.084       .  S
C2966      N2967   1.429       .  S
N2967      O2971   1.262       .  A
N2970      O2974   1.262       .  A
N2970      O2973   1.262       .  A
C2975      C2976   1.408       .  A
C2975      C2980   1.403       .  A
C2975      H2982   1.083       .  S
C2976      C2977   1.418       .  A
C2977      C2978   1.394       .  A
C2977      N2984   1.429       .  S
C2978      C2979   1.402       .  A
C2978      H2983   1.084       .  S
C2979      C2980   1.414       .  A
C2980      N2981   1.430       .  S
N2981      O2985   1.262       .  A
N2981      O2986   1.262       .  A
N2984      O2988   1.261       .  A
N2984      O2987   1.262       .  A
C2989      C2990   1.402       .  A
C2990      C2991   1.409       .  A
C2991      C2992   1.402   1_565  A
C2991      N2998   1.430       .  S
C2992      H2997   1.084       .  S
C2993      C2994   1.415       .  A
C2994      N2995   1.430       .  S
N2995      O2999   1.262       .  A
N2995      O3000   1.262       .  A
N2998      O3002   1.262       .  A
N2998      O3001   1.262       .  A
C3003      C3004   1.400       .  A
C3003      H3010   1.084       .  S
C3004      C3005   1.409       .  A
C3005      N3012   1.427       .  S
C3006      C3007   1.403       .  A
C3006      H3011   1.084       .  S
C3007      C3008   1.411       .  A
C3008      N3009   1.430       .  S
N3009      O3014   1.262       .  A
N3012      O3016   1.261       .  A
C3017      C3018   1.400       .  A
C3017      H3024   1.084       .  S
C3018      C3019   1.414       .  A
C3019      N3026   1.430       .  S
C3020      C3021   1.404       .  A
C3020      H3025   1.084       .  S
C3021      C3022   1.413       .  A
C3022      N3023   1.425       .  S
N3023      O3027   1.262   1_556  A
N3023      O3028   1.262       .  A
N3026      O3030   1.262       .  A
N3026      O3029   1.262       .  A
C3031      C3032   1.407       .  A
C3031      C3036   1.404       .  A
C3031      H3038   1.084       .  S
C3032      C3033   1.413       .  A
C3033      C3034   1.403       .  A
C3033      N3040   1.429       .  S
C3034      C3035   1.406       .  A
C3034      H3039   1.084       .  S
C3035      C3036   1.413       .  A
C3036      N3037   1.429       .  S
N3037      O3041   1.262       .  A
N3037      O3042   1.262       .  A
N3040      O3044   1.262       .  A
N3040      O3043   1.262       .  A
C3045      C3046   1.408       .  A
C3045      C3050   1.400       .  A
C3045      H3052   1.083       .  S
C3046      C3047   1.418       .  A
C3047      C3048   1.404       .  A
C3047      N3054   1.430       .  S
C3048      C3049   1.406       .  A
C3048      H3053   1.083       .  S
C3049      C3050   1.416       .  A
C3050      N3051   1.429       .  S
N3051      O3055   1.262       .  A
N3051      O3056   1.262       .  A
N3054      O3058   1.262       .  A
N3054      O3057   1.262       .  A
C3059      C3060   1.406       .  A
C3059      C3064   1.405       .  A
C3059      H3066   1.084       .  S
C3060      C3061   1.414       .  A
C3061      C3062   1.395       .  A
C3061      N3068   1.430       .  S
C3062      C3063   1.401       .  A
C3062      H3067   1.084       .  S
C3063      C3064   1.414       .  A
C3064      N3065   1.434       .  S
N3065      O3069   1.262       .  A
N3065      O3070   1.263       .  A
N3068      O3072   1.262       .  A
N3068      O3071   1.262       .  A
