geometry optimzed in LAMMPS
_audit_creation_date              2020-11-30 
_audit_creation_method            'lammps2cif' 
_symmetry_space_group_name_H-M    'P1' 
_symmetry_Int_Tables_number       1 
_symmetry_cell_setting            triclinic 
loop_ 
_symmetry_equiv_pos_as_xyz 
  x,y,z 
_cell_length_a                    44.31228546 
_cell_length_b                    44.312063998452274 
_cell_length_c                    31.89914517943927 
_cell_angle_alpha                 89.94897104968824 
_cell_angle_beta                  89.98934201682812 
_cell_angle_gamma                 120.04115863294979 
loop_ 
_atom_site_label 
_atom_site_type_symbol 
_atom_site_fract_x 
_atom_site_fract_y 
_atom_site_fract_z 
_atom_site_charge 
Fe1        Fe  0.20006363  0.75250534  0.16404411     1.65800
Fe2        Fe  0.24481068  0.79737223  0.24899356     1.73200
Fe3        Fe  0.18359783  0.81213637  0.20709189     1.54400
O4          O  0.17796469  0.81115834  0.14148960    -0.82000
O5          O  0.21017857  0.78805174  0.29655050    -0.80300
O6          O  0.20832567  0.78741328  0.11717144    -0.84500
O7          O  0.14644434  0.73494703  0.16426487    -0.79300
O8          O  0.22902676  0.85886521  0.20185012    -0.81100
O9          O  0.23308713  0.74554440  0.25415243    -0.83900
C10         C  0.12578947  0.74073786  0.18632928     0.96900
C11         C  0.19219673  0.80393023  0.11140779     1.04300
O12         O  0.20944356  0.78717665  0.20678218    -1.12800
O13         O  0.28219961  0.80751103  0.20485184    -0.75300
O14         O  0.25246778  0.76580256  0.15816629    -0.78800
O15         O  0.13705279  0.76625815  0.21160861    -0.79500
C16         C  0.28122470  0.78927848  0.17376681     0.95800
O17         O  0.19130441  0.71505484  0.20791560    -0.77400
O18         O  0.26139023  0.85060295  0.24874916    -0.82600
C19         C  0.19382140  0.80423088  0.30282449     0.98400
C20         C  0.25554524  0.87059345  0.22556543     1.04300
O21         O  0.18523678  0.81754147  0.27291722    -0.78300
C22         C  0.21023577  0.71650342  0.23850517     1.02600
Fe23       Fe  0.20444375  0.75146950  0.67057854     1.65800
Fe24       Fe  0.24831264  0.79755866  0.75595540     1.73200
Fe25       Fe  0.18900903  0.81366992  0.70883694     1.54400
O26         O  0.18767799  0.81365564  0.64282318    -0.82000
O27         O  0.21323746  0.79170635  0.80191339    -0.80300
O28         O  0.21413768  0.78499126  0.62131686    -0.84500
O29         O  0.15131483  0.73449227  0.66871498    -0.79300
O30         O  0.23504299  0.86045983  0.70718966    -0.81100
O31         O  0.23374053  0.74553128  0.76475926    -0.83900
C32         C  0.13044590  0.74114994  0.68864657     0.96900
C33         C  0.20059401  0.80374722  0.61382595     1.04300
O34         O  0.21408032  0.78767455  0.71176029    -1.12800
O35         O  0.28668774  0.80386697  0.71417669    -0.75300
O36         O  0.25611453  0.76286085  0.66701880    -0.78800
O37         O  0.14134122  0.76849926  0.71072485    -0.79500
C38         C  0.28502459  0.78459333  0.68378842     0.95800
O39         O  0.19392385  0.71496051  0.71626165    -0.77400
O40         O  0.26729930  0.85085852  0.75285793    -0.82600
C41         C  0.19368907  0.80485365  0.80537997     0.98400
C42         C  0.26153839  0.87142987  0.73090749     1.04300
O43         O  0.18591526  0.81763392  0.77421162    -0.78300
C44         C  0.21097586  0.71666180  0.74892046     1.02600
Fe45       Fe  0.20411867  0.45675077  0.41478559     1.65800
Fe46       Fe  0.25011810  0.45689479  0.33100719     1.73200
Fe47       Fe  0.18728172  0.38048584  0.37102724     1.54400
O48         O  0.18390423  0.37598788  0.43661766    -0.82000
O49         O  0.21633946  0.43265035  0.28227304    -0.80300
O50         O  0.21317881  0.43036868  0.46102531    -0.84500
O51         O  0.15060420  0.42093606  0.41557836    -0.79300
O52         O  0.23206575  0.37750445  0.37431878    -0.81100
O53         O  0.23860214  0.49725424  0.32660679    -0.83900
C54         C  0.12975308  0.39470103  0.39356113     0.96900
C55         C  0.19896691  0.39773793  0.46624151     1.04300
O56         O  0.21370628  0.43136149  0.37207378    -1.12800
O57         O  0.28679778  0.48327285  0.37648041    -0.75300
O58         O  0.25600658  0.49630493  0.42022559    -0.78800
O59         O  0.14063923  0.38007592  0.36832640    -0.79500
C60         C  0.28504383  0.50127971  0.40618033     0.95800
O61         O  0.19526731  0.48530934  0.37097068    -0.77400
O62         O  0.26659124  0.42001480  0.33055733    -0.82600
C63         C  0.19743500  0.40025306  0.27563824     0.98400
C64         C  0.25935357  0.39285416  0.35191860     1.04300
O65         O  0.18741717  0.37776422  0.30510587    -0.78300
C66         C  0.21552510  0.50345978  0.34152046     1.02600
Fe67       Fe  0.20252277  0.45499296  0.90878336     1.65800
Fe68       Fe  0.24944601  0.45623797  0.82569785     1.73200
Fe69       Fe  0.19013061  0.37933180  0.86883357     1.54400
O70         O  0.18651812  0.37627028  0.93484818    -0.82000
O71         O  0.21476846  0.42978221  0.77873202    -0.80300
O72         O  0.21239814  0.43115977  0.95745615    -0.84500
O73         O  0.14954362  0.41763504  0.90913185    -0.79300
O74         O  0.23668924  0.37976356  0.87197341    -0.81100
O75         O  0.23631714  0.49520935  0.82018863    -0.83900
C76         C  0.12976610  0.39068207  0.88746832     0.96900
C77         C  0.19896059  0.39879861  0.96425362     1.04300
O78         O  0.21414327  0.43011964  0.86791904    -1.12800
O79         O  0.28645612  0.48474439  0.87038358    -0.75300
O80         O  0.25400145  0.49591917  0.91383069    -0.78800
O81         O  0.14195066  0.37563856  0.86496255    -0.79500
C82         C  0.28365974  0.50200709  0.90038860     0.95800
O83         O  0.19162415  0.48036045  0.86292474    -0.77400
O84         O  0.26731153  0.42066046  0.82458094    -0.82600
C85         C  0.19851058  0.39710006  0.77324973     0.98400
C86         C  0.26186024  0.39418214  0.84612690     1.04300
O87         O  0.19067164  0.37540921  0.80326912    -0.78300
C88         C  0.21127863  0.49892382  0.83342438     1.02600
Fe89       Fe  0.54151213  0.79940168  0.00392573     1.65800
Fe90       Fe  0.54260434  0.75317686  0.08688243     1.73200
Fe91       Fe  0.61845382  0.81250251  0.04181447     1.54400
O92         O  0.62000914  0.81495391  0.97600766    -0.82000
O93         O  0.57013813  0.78800292  0.13340082    -0.80300
O94         O  0.56484938  0.78971809  0.95457150    -0.84500
O95         O  0.57859713  0.85258597  0.00240576    -0.79300
O96         O  0.61898060  0.76628945  0.03886105    -0.81100
O97         O  0.50368689  0.76635278  0.09403091    -0.83900
C98         C  0.60629112  0.87248744  0.02278057     0.96900
C99         C  0.59709362  0.80267327  0.94707481     1.04300
O100        O  0.56758540  0.78828035  0.04405510    -1.12800
O101        O  0.51305909  0.71593687  0.04307916    -0.75300
O102        O  0.50065717  0.74753163  0.99977823    -0.78800
O103        O  0.62161497  0.86037823  0.04496824    -0.79500
C104        C  0.49498933  0.71808800  0.01358232     0.95800
O105        O  0.51638307  0.81025186  0.05039094    -0.77400
O106        O  0.57801558  0.73495966  0.08596838    -0.82600
C107        C  0.60291641  0.80552972  0.13795888     0.98400
C108        C  0.60418611  0.74044262  0.06366654     1.04300
O109        O  0.62404918  0.81347931  0.10730145    -0.78300
C110        C  0.49889401  0.79071151  0.08053894     1.02600
Fe111      Fe  0.54591210  0.79782147  0.50103338     1.65800
Fe112      Fe  0.54589590  0.74975422  0.58253552     1.73200
Fe113      Fe  0.62236705  0.81236699  0.54220010     1.54400
O114        O  0.62605315  0.81656453  0.47666382    -0.82000
O115        O  0.57109080  0.78286745  0.63130727    -0.80300
O116        O  0.57152909  0.79020044  0.45245091    -0.84500
O117        O  0.58159912  0.85117917  0.50227842    -0.79300
O118        O  0.62505887  0.76753493  0.53792712    -0.81100
O119        O  0.50597647  0.76165438  0.58953319    -0.83900
C120        C  0.60794217  0.87090092  0.52478487     0.96900
C121        C  0.60407838  0.80401223  0.44678362     1.04300
O122        O  0.57145979  0.78658462  0.54187211    -1.12800
O123        O  0.51877025  0.71413845  0.53619198    -0.75300
O124        O  0.50632718  0.74623629  0.49393605    -0.78800
O125        O  0.62331236  0.85892070  0.54689578    -0.79500
C126        C  0.50124107  0.71676639  0.50639111     0.95800
O127        O  0.51844451  0.80602293  0.54695247    -0.77400
O128        O  0.58246947  0.73305493  0.58180365    -0.82600
C129        C  0.60350708  0.80238066  0.63732721     0.98400
C130        C  0.60989905  0.74060520  0.56090198     1.04300
O131        O  0.62583726  0.81198439  0.60780601    -0.78300
C132        C  0.50082670  0.78599922  0.57674234     1.02600
Fe133      Fe  0.79478051  0.24802495  0.41444141     1.65800
Fe134      Fe  0.74903990  0.20312577  0.49855675     1.73200
Fe135      Fe  0.80971611  0.18683148  0.45704309     1.54400
O136        O  0.81323504  0.18622996  0.39128574    -0.82000
O137        O  0.78380208  0.21281256  0.54589285    -0.80300
O138        O  0.78582684  0.21332631  0.36711489    -0.84500
O139        O  0.84795299  0.26491647  0.41403825    -0.79300
O140        O  0.76367887  0.13957175  0.45483399    -0.81100
O141        O  0.76019943  0.25462421  0.50240169    -0.83900
C142        C  0.86867793  0.25887111  0.43531968     0.96900
C143        C  0.80004191  0.19496531  0.36139030     1.04300
O144        O  0.78457552  0.21263832  0.45665403    -1.12800
O145        O  0.71193057  0.19278111  0.45374077    -0.75300
O146        O  0.74296562  0.23602909  0.40921276    -0.78800
O147        O  0.85752118  0.23240162  0.45927524    -0.79500
C148        C  0.71380761  0.21243915  0.42371413     0.95800
O149        O  0.80425983  0.28532857  0.45881343    -0.77400
O150        O  0.73248151  0.15033597  0.50092890    -0.82600
C151        C  0.80068429  0.19713416  0.55238526     0.98400
C152        C  0.73805382  0.12924279  0.47990565     1.04300
O153        O  0.80944091  0.18359965  0.52290000    -0.78300
C154        C  0.78395413  0.28362391  0.48789074     1.02600
Fe155      Fe  0.79536111  0.25240454  0.91532716     1.65800
Fe156      Fe  0.75117397  0.20787025  0.00064408     1.73200
Fe157      Fe  0.81189159  0.19237851  0.95775241     1.54400
O158        O  0.81225845  0.18993855  0.89181808    -0.82000
O159        O  0.78662720  0.21819536  0.04772526    -0.80300
O160        O  0.78449402  0.21700050  0.86854650    -0.84500
O161        O  0.84841778  0.26942608  0.91125088    -0.79300
O162        O  0.76666820  0.14457932  0.95848698    -0.81100
O163        O  0.76257482  0.25952150  0.00366010    -0.83900
C164        C  0.86959666  0.26389761  0.93219283     0.96900
C165        C  0.79824188  0.19827402  0.86238817     1.04300
O166        O  0.78616192  0.21741255  0.95792791    -1.12800
O167        O  0.71327153  0.19691658  0.95629092    -0.75300
O168        O  0.74380265  0.24098704  0.91257038    -0.78800
O169        O  0.85918434  0.23824696  0.95718783    -0.79500
C170        C  0.71486689  0.21690284  0.92680193     0.95800
O171        O  0.80652681  0.28974310  0.95984659    -0.77400
O172        O  0.73469251  0.15492145  0.00362033    -0.82600
C173        C  0.80559648  0.20460000  0.05347212     0.98400
C174        C  0.74093984  0.13391543  0.98342252     1.04300
O175        O  0.81446700  0.19144085  0.02362050    -0.78300
C176        C  0.78618129  0.28841746  0.98858830     1.02600
Fe177      Fe  0.79260972  0.54666155  0.16245610     1.65800
Fe178      Fe  0.74242004  0.54507896  0.08222915     1.73200
Fe179      Fe  0.80728191  0.62231234  0.11856668     1.54400
O180        O  0.81379422  0.62786351  0.18381483    -0.82000
O181        O  0.77387822  0.56883234  0.03141127    -0.80300
O182        O  0.78747240  0.57416301  0.21098166    -0.84500
O183        O  0.84580656  0.58210774  0.15956668    -0.79300
O184        O  0.76258783  0.62545418  0.12418038    -0.81100
O185        O  0.75370362  0.50498204  0.07562545    -0.83900
C186        C  0.86577664  0.60832031  0.13701917     0.96900
C187        C  0.80296564  0.60705515  0.21499468     1.04300
O188        O  0.78070500  0.57141640  0.12117095    -1.12800
O189        O  0.70794091  0.51873687  0.12981291    -0.75300
O190        O  0.74109054  0.50711531  0.17139336    -0.78800
O191        O  0.85406688  0.62298779  0.11303411    -0.79500
C192        C  0.71131714  0.50119129  0.15893644     0.95800
O193        O  0.79906756  0.51795750  0.11673242    -0.77400
O194        O  0.72568131  0.58148803  0.08370723    -0.82600
C195        C  0.79380833  0.60098363  0.02411698     0.98400
C196        C  0.73412392  0.60937048  0.10401624     1.04300
O197        O  0.80489731  0.62396821  0.05292780    -0.78300
C198        C  0.77794682  0.49968851  0.08808849     1.02600
Fe199      Fe  0.79508623  0.54514759  0.66129642     1.65800
Fe200      Fe  0.74961903  0.54676965  0.57775203     1.73200
Fe201      Fe  0.81429859  0.62261087  0.61860212     1.54400
O202        O  0.81594166  0.62617102  0.68468317    -0.82000
O203        O  0.78301751  0.57168340  0.52910317    -0.80300
O204        O  0.78678904  0.57139983  0.70835742    -0.84500
O205        O  0.84849441  0.57982541  0.66354207    -0.79300
O206        O  0.77047727  0.62732959  0.61954136    -0.81100
O207        O  0.76110421  0.50660490  0.57131915    -0.83900
C208        C  0.87028910  0.60664772  0.64324466     0.96900
C209        C  0.80124526  0.60400084  0.71419914     1.04300
O210        O  0.78638370  0.57162881  0.61903489    -1.12800
O211        O  0.71259674  0.51944581  0.62272626    -0.75300
O212        O  0.74310849  0.50634863  0.66661298    -0.78800
O213        O  0.86060824  0.62219627  0.61782871    -0.79500
C214        C  0.71416772  0.50168878  0.65289888     0.95800
O215        O  0.80361964  0.51712818  0.61633738    -0.77400
O216        O  0.73348243  0.58361479  0.57881801    -0.82600
C217        C  0.80484352  0.60361031  0.52298687     0.98400
C218        C  0.74234879  0.61175514  0.59873748     1.04300
O219        O  0.81629469  0.62594065  0.55263807    -0.78300
C220        C  0.78440226  0.50043268  0.58546232     1.02600
Fe221      Fe  0.45355247  0.20431656  0.25272776     1.65800
Fe222      Fe  0.45254085  0.24894401  0.33681047     1.73200
Fe223      Fe  0.37652955  0.18876580  0.29312851     1.54400
O224        O  0.37482480  0.18933031  0.22719736    -0.82000
O225        O  0.42713351  0.21337591  0.38337113    -0.80300
O226        O  0.43008302  0.21567785  0.20500115    -0.84500
O227        O  0.41690623  0.15172867  0.24785146    -0.79300
O228        O  0.37446178  0.23423158  0.29426383    -0.81100
O229        O  0.49288898  0.23764670  0.34032065    -0.83900
C230        C  0.38902906  0.13060107  0.26684746     0.96900
C231        C  0.39774117  0.20277392  0.19821700     1.04300
O232        O  0.42729735  0.21388296  0.29422875    -1.12800
O233        O  0.47941344  0.28641952  0.29214724    -0.75300
O234        O  0.49413053  0.25568228  0.25055194    -0.78800
O235        O  0.37384044  0.14092938  0.29195002    -0.79500
C236        C  0.49832031  0.28468505  0.26342366     0.95800
O237        O  0.47870939  0.19243619  0.29839223    -0.77400
O238        O  0.41606498  0.26555620  0.34027168    -0.82600
C239        C  0.39452723  0.19419119  0.38885934     0.98400
C240        C  0.38883443  0.25936840  0.32004315     1.04300
O241        O  0.37257884  0.18543853  0.35890247    -0.78300
C242        C  0.49751061  0.21317007  0.32701786     1.02600
Fe243      Fe  0.45448739  0.20505124  0.74937050     1.65800
Fe244      Fe  0.45524709  0.25301968  0.83062406     1.73200
Fe245      Fe  0.37851317  0.18922928  0.79272410     1.54400
O246        O  0.37424189  0.18425982  0.72715017    -0.82000
O247        O  0.43126270  0.22070703  0.88026878    -0.80300
O248        O  0.42854745  0.21374214  0.70208850    -0.84500
O249        O  0.41805611  0.15216342  0.74888687    -0.79300
O250        O  0.37500635  0.23374810  0.78804229    -0.81100
O251        O  0.49526983  0.24120633  0.83650354    -0.83900
C252        C  0.39238121  0.13157472  0.77165384     0.96900
C253        C  0.39577619  0.19792205  0.69688011     1.04300
O254        O  0.42931003  0.21576003  0.79102572    -1.12800
O255        O  0.48122764  0.28830683  0.78373379    -0.75300
O256        O  0.49514102  0.25630361  0.74341693    -0.78800
O257        O  0.37844585  0.14285554  0.79735053    -0.79500
C258        C  0.49988082  0.28567422  0.75557307     0.95800
O259        O  0.48153114  0.19584912  0.79482968    -0.77400
O260        O  0.41854025  0.26925976  0.82992478    -0.82600
C261        C  0.39900221  0.20163321  0.88759148     0.98400
C262        C  0.39075192  0.26138430  0.80978234     1.04300
O263        O  0.37614152  0.19075905  0.85855561    -0.78300
C264        C  0.49981967  0.21645146  0.82389209     1.02600
C265        C  0.38292603  0.19383072  0.65345400    -0.20200
C266        C  0.36244904  0.16037191  0.63579331     0.36000
C267        C  0.35749359  0.15708571  0.59210526    -0.26200
C268        C  0.37254125  0.18654089  0.56608164     0.02500
C269        C  0.39143644  0.22006529  0.58394774     0.27300
C270        C  0.39644064  0.22336077  0.62755229    -0.25300
N271        N  0.34933061  0.12981974  0.66177217    -0.82700
H272        H  0.34345343  0.13142827  0.57802301     0.13100
C273        C  0.37342899  0.18196184  0.52024054     0.02400
N274        N  0.40682091  0.25047646  0.55753524    -0.81200
H275        H  0.41242978  0.24895670  0.64122706     0.17900
C276        C  0.35135148  0.18733267  0.49366415    -0.26100
C277        C  0.35528649  0.18780608  0.44976039     0.36000
C278        C  0.38254577  0.18387242  0.43258910    -0.20100
C279        C  0.40310430  0.17638155  0.45935350    -0.25400
C280        C  0.39867734  0.17516863  0.50297190     0.27300
H281        H  0.33182754  0.19226453  0.50727312     0.13100
N282        N  0.33328953  0.19454825  0.42288821    -0.82600
H283        H  0.42386334  0.17312927  0.44622462     0.17900
N284        N  0.42055813  0.16831171  0.52997718    -0.81200
H285        H  0.31564364  0.19835959  0.44064760     0.33600
H286        H  0.31832977  0.17206631  0.40511628     0.38100
H287        H  0.43751355  0.16339813  0.51231415     0.33500
H288        H  0.43615074  0.19091341  0.54727130     0.30200
H289        H  0.41965185  0.27312602  0.57563549     0.33500
H290        H  0.42592126  0.24960730  0.53918607     0.30200
H291        H  0.33057044  0.12968159  0.68175374     0.38100
H292        H  0.33646277  0.10722486  0.64358865     0.33600
C293        C  0.38868689  0.19359886  0.93214541    -0.20200
C294        C  0.36254820  0.19898624  0.94995677     0.36000
C295        C  0.35942211  0.19906991  0.99395374    -0.26200
C296        C  0.38168007  0.19359633  0.02008668     0.02500
C297        C  0.40649250  0.18639333  0.00229701     0.27300
C298        C  0.40975701  0.18651251  0.95854231    -0.25300
N299        N  0.34098486  0.20671377  0.92358041    -0.82700
H300        H  0.34038359  0.20452071  0.00796940     0.13100
C301        C  0.38064952  0.19754535  0.06605852     0.02400
N302        N  0.42878496  0.17974323  0.02882133    -0.81200
H303        H  0.42987506  0.18247615  0.94491623     0.17900
C304        C  0.36060176  0.16800698  0.09088720    -0.26100
C305        C  0.36348183  0.16977232  0.13488414     0.36000
C306        C  0.38708231  0.20172950  0.15411729    -0.20100
C307        C  0.40580647  0.23163333  0.12922185    -0.25400
C308        C  0.40271932  0.22989928  0.08532652     0.27300
H309        H  0.34389959  0.14321974  0.07576008     0.13100
N310        N  0.34473926  0.13872714  0.15977210    -0.82600
H311        H  0.42413438  0.25606437  0.14402030     0.17900
N312        N  0.42268564  0.26057908  0.06015280    -0.81200
H313        H  0.33004970  0.11707555  0.14062533     0.33600
H314        H  0.32690347  0.14169672  0.17822087     0.38100
H315        H  0.43730528  0.28231592  0.07920761     0.33500
H316        H  0.44059814  0.25700613  0.04265711     0.30200
H317        H  0.44526037  0.17440503  0.01077459     0.33500
H318        H  0.44490531  0.20255920  0.04546703     0.30200
H319        H  0.32494149  0.18427718  0.90626194     0.38100
H320        H  0.32437412  0.21178256  0.94173993     0.33600
C321        C  0.68114830  0.47332928  0.67112592    -0.20200
C322        C  0.68031316  0.45816397  0.71049731     0.36000
C323        C  0.64974067  0.42799407  0.72331345    -0.26200
C324        C  0.61968875  0.41321637  0.69833325     0.02500
C325        C  0.61959261  0.42972724  0.66058834     0.27300
C326        C  0.65030793  0.45955532  0.64734239    -0.25300
N327        N  0.71038179  0.47339862  0.73738220    -0.82700
H328        H  0.64929659  0.41580402  0.75295337     0.13100
C329        C  0.58874640  0.38010127  0.71180830     0.02400
N330        N  0.58857234  0.41563728  0.63537497    -0.81200
H331        H  0.65043488  0.47125331  0.61746236     0.17900
C332        C  0.55698833  0.37906655  0.71883199    -0.26100
C333        C  0.52740238  0.34827008  0.73208320     0.36000
C334        C  0.52942538  0.31783901  0.73825022    -0.20100
C335        C  0.56105254  0.31872012  0.73059559    -0.25400
C336        C  0.59081385  0.34959395  0.71766645     0.27300
H337        H  0.55526180  0.40240992  0.71443811     0.13100
N338        N  0.49525621  0.34789816  0.73879051    -0.82600
H339        H  0.56280182  0.29546990  0.73581737     0.17900
N340        N  0.62316486  0.35017685  0.71069540    -0.81200
H341        H  0.48838852  0.35520470  0.71079261     0.33600
H342        H  0.49952878  0.36666944  0.76143820     0.38100
H343        H  0.62040149  0.32574517  0.71697023     0.33500
H344        H  0.62923501  0.35513788  0.67885757     0.30200
H345        H  0.59271537  0.43105500  0.60878300     0.33500
H346        H  0.58321197  0.39114391  0.62470491     0.30200
H347        H  0.71485645  0.49801839  0.74628558     0.38100
H348        H  0.70545222  0.45889975  0.76496497     0.33600
C349        C  0.80198271  0.61559678  0.75783701    -0.20200
C350        C  0.77136048  0.59966609  0.78235152     0.36000
C351        C  0.77375856  0.60370129  0.82613239    -0.26200
C352        C  0.80617170  0.62334747  0.84585322     0.02500
C353        C  0.83654834  0.64132786  0.82122554     0.27300
C354        C  0.83417304  0.63738364  0.77725550    -0.25300
N355        N  0.73808591  0.57842415  0.76263097    -0.82700
H356        H  0.75042652  0.59025148  0.84515728     0.13100
C357        C  0.80780005  0.62248008  0.89233223     0.02400
N358        N  0.86970265  0.66252927  0.84114648    -0.81200
H359        H  0.85769528  0.64947206  0.75842040     0.17900
C360        C  0.82138275  0.60321552  0.91132629    -0.26100
C361        C  0.81869451  0.59749189  0.95484462     0.36000
C362        C  0.80271440  0.61166266  0.97992213    -0.20100
C363        C  0.79082097  0.63247604  0.96127577    -0.25400
C364        C  0.79300417  0.63783199  0.91757451     0.27300
H365        H  0.83279460  0.59136249  0.89208216     0.13100
N366        N  0.83178270  0.57690705  0.97352687    -0.82600
H367        H  0.77822412  0.64308020  0.98058095     0.17900
N368        N  0.77938724  0.65792066  0.89848998    -0.81200
H369        H  0.85837817  0.58867033  0.96663064     0.33600
H370        H  0.81921213  0.55228828  0.95950869     0.38100
H371        H  0.76910668  0.66719399  0.92128439     0.33500
H372        H  0.80030257  0.67980792  0.88465682     0.30200
H373        H  0.88951005  0.67389995  0.81870617     0.33500
H374        H  0.86878407  0.68298561  0.85626522     0.30200
H375        H  0.71814167  0.56827282  0.78498510     0.38100
H376        H  0.73345190  0.59464470  0.74310605     0.33600
C377        C  0.81561113  0.61458007  0.47893185    -0.20200
C378        C  0.82040550  0.59255073  0.45110407     0.36000
C379        C  0.82355138  0.59963404  0.40794967    -0.26200
C380        C  0.82233540  0.62843839  0.39163379     0.02500
C381        C  0.81920080  0.65146587  0.41952604     0.27300
C382        C  0.81605644  0.64439964  0.46300730    -0.25300
N383        N  0.82117513  0.56248904  0.46674487    -0.82700
H384        H  0.82570925  0.58176526  0.38665119     0.13100
C385        C  0.82185645  0.63193672  0.34512180     0.02400
N386        N  0.81842892  0.68139197  0.40352596    -0.81200
H387        H  0.81212843  0.66119388  0.48425362     0.17900
C388        C  0.79310322  0.63147459  0.32566942    -0.26100
C389        C  0.78780718  0.62638740  0.28203694     0.36000
C390        C  0.81134017  0.62112487  0.25790188    -0.20100
C391        C  0.84147445  0.62450587  0.27663006    -0.25400
C392        C  0.84724705  0.63037003  0.31991329     0.27300
H393        H  0.77368217  0.63293881  0.34480863     0.13100
N394        N  0.75790652  0.62489600  0.26243890    -0.82600
H395        H  0.85977021  0.62094613  0.25767894     0.17900
N396        N  0.87807463  0.63330321  0.33875718    -0.81200
H397        H  0.74304679  0.62917494  0.28456374     0.33600
H398        H  0.76706026  0.64556115  0.24108749     0.38100
H399        H  0.89397147  0.63129808  0.31600529     0.33500
H400        H  0.89230101  0.65832839  0.35149876     0.30200
H401        H  0.81570537  0.69550881  0.42803265     0.33500
H402        H  0.84260327  0.69776893  0.38958474     0.30200
H403        H  0.84308183  0.57139870  0.48601634     0.38100
H404        H  0.82446528  0.54874721  0.44222563     0.33600
C405        C  0.67952663  0.47139876  0.17718833    -0.20200
C406        C  0.64718038  0.47055880  0.17811387     0.36000
C407        C  0.61719906  0.44027203  0.19206340    -0.26200
C408        C  0.61885360  0.41085393  0.20469742     0.02500
C409        C  0.65100257  0.41164769  0.20420525     0.27300
C410        C  0.68106859  0.44198552  0.19073701    -0.25300
N411        N  0.64483913  0.50033535  0.16484609    -0.82700
H412        H  0.59231965  0.43939745  0.19272389     0.13100
C413        C  0.58672332  0.37928740  0.21864223     0.02400
N414        N  0.65282078  0.38146249  0.21695945    -0.81200
H415        H  0.70563887  0.44224958  0.18959455     0.17900
C416        C  0.57264007  0.34922162  0.19381010    -0.26100
C417        C  0.54301809  0.31826546  0.20688190     0.36000
C418        C  0.52735292  0.31744381  0.24591936    -0.20100
C419        C  0.54111133  0.34803566  0.27008054    -0.25400
C420        C  0.57082979  0.37883678  0.25699905     0.27300
H421        H  0.58499474  0.34994995  0.16420438     0.13100
N422        N  0.52896754  0.28779195  0.18069885    -0.82600
H423        H  0.52946579  0.34762726  0.30009325     0.17900
N424        N  0.58552652  0.40943589  0.28296527    -0.81200
H425        H  0.54392642  0.29272366  0.15351561     0.33600
H426        H  0.50417972  0.28228382  0.17100409     0.38100
H427        H  0.57072179  0.40482193  0.31021956     0.33500
H428        H  0.61019300  0.41448655  0.29254859     0.30200
H429        H  0.67832641  0.38612803  0.21432921     0.33500
H430        H  0.64629408  0.37717474  0.24875846     0.30200
H431        H  0.65951486  0.52062123  0.18578438     0.38100
H432        H  0.61914928  0.49522550  0.16695502     0.33600
C433        C  0.78879008  0.32129277  0.00394934    -0.20200
C434        C  0.80695889  0.35304036  0.98121290     0.36000
C435        C  0.80649413  0.38268070  0.99576593    -0.26200
C436        C  0.78766542  0.38111851  0.03160859     0.02500
C437        C  0.76979341  0.34992892  0.05454409     0.27300
C438        C  0.77066830  0.32034744  0.04064233    -0.25300
N439        N  0.82485237  0.35501129  0.94278861    -0.82700
H440        H  0.82002651  0.40694039  0.97841426     0.13100
C441        C  0.78625928  0.41230450  0.04429765     0.02400
N442        N  0.75029981  0.34833477  0.09134681    -0.81200
H443        H  0.75665999  0.29631274  0.05829322     0.17900
C444        C  0.75812095  0.41598584  0.03133008    -0.26100
C445        C  0.75529673  0.44477681  0.04392342     0.36000
C446        C  0.78120111  0.47047702  0.07011476    -0.20100
C447        C  0.80997083  0.46697327  0.08180629    -0.25400
C448        C  0.81262930  0.43805302  0.06931673     0.27300
H449        H  0.73800147  0.39613917  0.01172912     0.13100
N450        N  0.72572947  0.44724535  0.03062960    -0.82600
H451        H  0.83023413  0.48649270  0.10150943     0.17900
N452        N  0.84184442  0.43454988  0.08210174    -0.81200
H453        H  0.72537837  0.44730625  0.99785143     0.33600
H454        H  0.70318898  0.42497921  0.04100925     0.38100
H455        H  0.85920114  0.45596163  0.10013102     0.33500
H456        H  0.83241169  0.41270091  0.10161177     0.30200
H457        H  0.73816581  0.32329276  0.10431659     0.33500
H458        H  0.76799576  0.36500466  0.11375380     0.30200
H459        H  0.80592615  0.34005535  0.92047378     0.38100
H460        H  0.83789011  0.38051751  0.93119828     0.33600
C461        C  0.52867912  0.21255265  0.84166493    -0.20200
C462        C  0.54336880  0.22600999  0.88144886     0.36000
C463        C  0.57305152  0.22474037  0.89449495    -0.26200
C464        C  0.58797388  0.20997412  0.86890659     0.02500
C465        C  0.57286578  0.19564599  0.82990474     0.27300
C466        C  0.54318897  0.19674425  0.81685352    -0.25300
N467        N  0.52823768  0.24090474  0.90838678    -0.82700
H468        H  0.58485901  0.23557339  0.92457741     0.13100
C469        C  0.62056724  0.21133923  0.88233764     0.02400
N470        N  0.58834057  0.18091882  0.80325800    -0.81200
H471        H  0.53222230  0.18642323  0.78630085     0.17900
C472        C  0.61973707  0.18091168  0.89622890    -0.26100
C473        C  0.65036033  0.18163597  0.90964971     0.36000
C474        C  0.68223670  0.21363443  0.90968418    -0.20100
C475        C  0.68296768  0.24377541  0.89440102    -0.25400
C476        C  0.65249932  0.24287226  0.88047423     0.27300
H477        H  0.59511023  0.15660340  0.89660009     0.13100
N478        N  0.64924982  0.15003845  0.92271536    -0.82600
H479        H  0.70732606  0.26835088  0.89402104     0.17900
N480        N  0.65374017  0.27383627  0.86451806    -0.81200
H481        H  0.62383677  0.12890436  0.92081658     0.33600
H482        H  0.66418171  0.14506473  0.90141864     0.38100
H483        H  0.67922314  0.29493877  0.86542255     0.33500
H484        H  0.64659090  0.26950203  0.83290572     0.30200
H485        H  0.57399185  0.17136467  0.77560280     0.33500
H486        H  0.61302071  0.20107284  0.79447421     0.30200
H487        H  0.50332205  0.22095560  0.91674200     0.38100
H488        H  0.54242663  0.24986805  0.93624173     0.33600
C489        C  0.80817063  0.19316896  0.59644423    -0.20200
C490        C  0.79289740  0.15987509  0.61532023     0.36000
C491        C  0.79301638  0.15724242  0.65932763    -0.26200
C492        C  0.80820821  0.18721208  0.68447646     0.02500
C493        C  0.82468559  0.22042224  0.66548180     0.27300
C494        C  0.82451767  0.22304278  0.62161952    -0.25300
N495        N  0.77505988  0.12900987  0.59000967    -0.82700
H496        H  0.78013236  0.13182355  0.67418386     0.13100
C497        C  0.80399999  0.18391726  0.73064610     0.02400
N498        N  0.84013984  0.25132806  0.69094718    -0.81200
H499        H  0.83563444  0.24850778  0.60703074     0.17900
C500        C  0.83312626  0.19291674  0.75601825    -0.26100
C501        C  0.83118771  0.19505287  0.79988548     0.36000
C502        C  0.79941494  0.18806520  0.81853322    -0.20100
C503        C  0.76991263  0.17757856  0.79312771    -0.25400
C504        C  0.77190861  0.17556367  0.74933800     0.27300
H505        H  0.85777658  0.19968351  0.74133165     0.13100
N506        N  0.86197096  0.20698619  0.82509973    -0.82600
H507        H  0.74565690  0.17266974  0.80739062     0.17900
N508        N  0.74194138  0.16665603  0.72361156    -0.81200
H509        H  0.85827202  0.18623038  0.84420752     0.33600
H510        H  0.88359710  0.21307794  0.80625147     0.38100
H511        H  0.72035751  0.16118271  0.74222404     0.33500
H512        H  0.74739976  0.18859473  0.70569984     0.30200
H513        H  0.85130882  0.27366546  0.67213030     0.33500
H514        H  0.82011639  0.25169102  0.70788149     0.30200
H515        H  0.79371015  0.12757143  0.57140285     0.38100
H516        H  0.76383575  0.10668139  0.60885831     0.33600
C517        C  0.81498964  0.20171427  0.09727038    -0.20200
C518        C  0.82618130  0.22986719  0.12545178     0.36000
C519        C  0.82734140  0.22411578  0.16865206    -0.26200
C520        C  0.81686425  0.19069464  0.18426289     0.02500
C521        C  0.80713582  0.16285743  0.15610048     0.27300
C522        C  0.80680045  0.16875473  0.11271402    -0.25300
N523        N  0.83510502  0.26387212  0.11016183    -0.82700
H524        H  0.83471670  0.24539916  0.19050444     0.13100
C525        C  0.81226263  0.18490802  0.23020996     0.02400
N526        N  0.79610636  0.12848766  0.17185961    -0.81200
H527        H  0.79774176  0.14703572  0.09115804     0.17900
C528        C  0.77879486  0.17183205  0.24715940    -0.26100
C529        C  0.77385403  0.17228287  0.29064693     0.36000
C530        C  0.80293260  0.18571526  0.31763687    -0.20100
C531        C  0.83608824  0.19624175  0.30092224    -0.25400
C532        C  0.84106452  0.19620000  0.25726828     0.27300
H533        H  0.75672545  0.16302299  0.22619129     0.13100
N534        N  0.73963521  0.16045648  0.30751720    -0.82600
H535        H  0.85843511  0.20677897  0.32167458     0.17900
N536        N  0.87534264  0.20900742  0.24012715    -0.81200
H537        H  0.72107512  0.15162587  0.28354054     0.33600
H538        H  0.73337019  0.13895636  0.32670993     0.38100
H539        H  0.89379312  0.21675229  0.26415208     0.33500
H540        H  0.87544805  0.18823025  0.22475469     0.30200
H541        H  0.78921261  0.11075122  0.14713966     0.33500
H542        H  0.81750124  0.12927716  0.18675192     0.30200
H543        H  0.85702663  0.27255551  0.09093445     0.38100
H544        H  0.84237120  0.28161208  0.13493215     0.33600
C545        C  0.78665181  0.31634489  0.50385130    -0.20200
C546        C  0.81825678  0.34856289  0.50212472     0.36000
C547        C  0.81861454  0.37927801  0.51405842    -0.26200
C548        C  0.78819807  0.37847384  0.52787343     0.04900
C549        C  0.75679818  0.34635277  0.53048120     0.27300
C550        C  0.75634751  0.31561239  0.51852375    -0.25300
N551        N  0.84987558  0.35000959  0.48846226    -0.82700
H552        H  0.84271473  0.40405617  0.51252363     0.13100
C553        C  0.78973991  0.41138995  0.54057952     0.02400
N554        N  0.72552186  0.34516284  0.54511989    -0.81200
H555        H  0.73198629  0.29106421  0.51973292     0.17900
C556        C  0.77156807  0.42401135  0.51726792    -0.26100
C557        C  0.77117544  0.45431975  0.52955817     0.36000
C558        C  0.78823957  0.47157271  0.56704912    -0.20100
C559        C  0.80781657  0.45961540  0.58905701    -0.25400
C560        C  0.80886337  0.42987694  0.57609169     0.27300
H561        H  0.75770587  0.41012912  0.48929971     0.13100
N562        N  0.75360170  0.46751405  0.50402967    -0.82600
H563        H  0.82157991  0.47282871  0.61734981     0.17900
N564        N  0.82869880  0.41792398  0.59932679    -0.81200
H565        H  0.74222772  0.45158704  0.47788046     0.33600
H566        H  0.77254313  0.49180861  0.49248384     0.38100
H567        H  0.84164713  0.43464608  0.62439539     0.33500
H568        H  0.81114216  0.39368821  0.61231918     0.30200
H569        H  0.70458515  0.31956867  0.54482827     0.33500
H570        H  0.72949035  0.35320637  0.57642410     0.30200
H571        H  0.85598065  0.33630950  0.51036197     0.38100
H572        H  0.87063601  0.37568945  0.48860761     0.33600
C573        C  0.68087630  0.20899149  0.40695306    -0.20200
C574        C  0.67952498  0.22376531  0.36811239     0.36000
C575        C  0.64860553  0.22303690  0.35621019    -0.26200
C576        C  0.61895536  0.20760500  0.38193378     0.02500
C577        C  0.61983419  0.19199706  0.42000766     0.27300
C578        C  0.65064144  0.19262590  0.43198244    -0.25300
N579        N  0.70941769  0.23949252  0.34091174    -0.82700
H580        H  0.64757679  0.23468267  0.32674456     0.13100
C581        C  0.58746374  0.20891273  0.36915048     0.02400
N582        N  0.58970936  0.17640391  0.44685752    -0.81200
H583        H  0.65132686  0.18135377  0.46186461     0.17900
C584        C  0.55629212  0.17781121  0.36098993    -0.26100
C585        C  0.52612171  0.17827912  0.34823035     0.36000
C586        C  0.52735014  0.21057861  0.34350974    -0.20100
C587        C  0.55841733  0.24157392  0.35256471    -0.25400
C588        C  0.58847143  0.24108164  0.36529974     0.27300
H589        H  0.55564237  0.15315389  0.36433557     0.13100
N590        N  0.49430128  0.14618615  0.34037128    -0.82600
H591        H  0.55949321  0.26640225  0.34876123     0.17900
N592        N  0.62007501  0.27310588  0.37426133    -0.81200
H593        H  0.49788121  0.12483977  0.34518830     0.33600
H594        H  0.47598869  0.14413948  0.36255443     0.38100
H595        H  0.61656776  0.29450332  0.36950329     0.33500
H596        H  0.62554120  0.27295931  0.40611905     0.30200
H597        H  0.59457350  0.16597730  0.47371741     0.33500
H598        H  0.58518990  0.19623167  0.45700574     0.30200
H599        H  0.71413167  0.21976204  0.33088597     0.38100
H600        H  0.70417494  0.24955247  0.31398923     0.33600
C601        C  0.71956078  0.62756717  0.59638522    -0.20200
C602        C  0.72434685  0.65507455  0.62316536     0.36000
C603        C  0.70453458  0.67140847  0.61715144    -0.26200
C604        C  0.67921080  0.66042580  0.58556118     0.02500
C605        C  0.67303401  0.63188466  0.56008400     0.27300
C606        C  0.69338647  0.61594266  0.56553182    -0.25300
N607        N  0.74913807  0.66653552  0.65671601    -0.82700
H608        H  0.70931317  0.69317468  0.63704960     0.13100
C609        C  0.65995633  0.67956211  0.57897360     0.02400
N610        N  0.64613165  0.61925633  0.52874730    -0.81200
H611        H  0.68905461  0.59465536  0.54505518     0.17900
C612        C  0.66111861  0.69420903  0.53951792    -0.26100
C613        C  0.64418758  0.71342577  0.53231943     0.36000
C614        C  0.62579117  0.71821905  0.56543072    -0.20100
C615        C  0.62436558  0.70323038  0.60472426    -0.25400
C616        C  0.64131488  0.68408006  0.61189416     0.27300
H617        H  0.67570386  0.69098231  0.51436724     0.13100
N618        N  0.64558742  0.72799713  0.49158160    -0.82600
H619        H  0.61067434  0.70722876  0.63033203     0.17900
N620        N  0.63984277  0.66936712  0.65254714    -0.81200
H621        H  0.66034972  0.72227508  0.47089506     0.33600
H622        H  0.62020474  0.71573895  0.47968291     0.38100
H623        H  0.62548148  0.67544551  0.67344292     0.33500
H624        H  0.62637018  0.64225125  0.64935584     0.30200
H625        H  0.64494720  0.59817957  0.51257148     0.33500
H626        H  0.62228168  0.60977066  0.54426812     0.30200
H627        H  0.76692787  0.69304440  0.65237218     0.38100
H628        H  0.73582782  0.66370117  0.68483600     0.33600
C629        C  0.62184834  0.90926929  0.52403859    -0.20200
C630        C  0.65134807  0.93261668  0.54794959     0.36000
C631        C  0.66580675  0.96863616  0.54283880    -0.26200
C632        C  0.65163388  0.98212820  0.51429407     0.02500
C633        C  0.62105949  0.95929823  0.49226776     0.27300
C634        C  0.60645431  0.92309618  0.49730085    -0.25300
N635        N  0.66746322  0.92012579  0.57670511    -0.82700
H636        H  0.68923044  0.98619829  0.56001376     0.13100
C637        C  0.67117606  0.01991642  0.50495503     0.02400
N638        N  0.60545479  0.97305154  0.46430495    -0.81200
H639        H  0.58349710  0.90570573  0.47934093     0.17900
C640        C  0.68536438  0.03086044  0.46474568    -0.26100
C641        C  0.70691879  0.06640416  0.45532991     0.36000
C642        C  0.71439809  0.09145360  0.48695772    -0.20100
C643        C  0.69947125  0.08035075  0.52696681    -0.25400
C644        C  0.67805020  0.04485483  0.53632897     0.27300
H645        H  0.68014502  0.01146345  0.44086718     0.13100
N646        N  0.72107245  0.07704576  0.41388310    -0.82600
H647        H  0.70514471  0.09943867  0.55139511     0.17900
N648        N  0.66355784  0.03397610  0.57760992    -0.81200
H649        H  0.71324474  0.05532985  0.39454395     0.33600
H650        H  0.71036111  0.09132956  0.40108128     0.38100
H651        H  0.67147140  0.05556671  0.59719739     0.33500
H652        H  0.63646090  0.02201536  0.57494514     0.30200
H653        H  0.58316714  0.95283772  0.45028038     0.33500
H654        H  0.59717364  0.98724380  0.48236291     0.30200
H655        H  0.69340662  0.93009668  0.56752647     0.38100
H656        H  0.66736235  0.92996483  0.60645057     0.33600
C657        C  0.71050304  0.62430662  0.10242830    -0.20200
C658        C  0.71407189  0.65074956  0.13027428     0.36000
C659        C  0.69373662  0.66664247  0.12456026    -0.26200
C660        C  0.66956814  0.65658252  0.09169403     0.02500
C661        C  0.66448133  0.62895030  0.06526766     0.27300
C662        C  0.68494938  0.61314789  0.07083501    -0.25300
N663        N  0.73831586  0.66169899  0.16437284    -0.82700
H664        H  0.69748494  0.68759629  0.14531446     0.13100
C665        C  0.65100932  0.67627542  0.08396658     0.02400
N666        N  0.63877069  0.61734920  0.03255166    -0.81200
H667        H  0.68149648  0.59263180  0.04954161     0.17900
C668        C  0.65618232  0.69398406  0.04579381    -0.26100
C669        C  0.64012339  0.71389602  0.03753318     0.36000
C670        C  0.61886845  0.71678953  0.06860273    -0.20100
C671        C  0.61305670  0.69820305  0.10639888    -0.25400
C672        C  0.62877241  0.67792601  0.11430032     0.27300
H673        H  0.67310744  0.69243840  0.02241654     0.13100
N674        N  0.64526782  0.73098327  0.99767464    -0.82600
H675        H  0.59676784  0.70008122  0.13038739     0.17900
N676        N  0.62232949  0.65906120  0.15303738    -0.81200
H677        H  0.66184230  0.72648815  0.97865656     0.33600
H678        H  0.62112744  0.71952277  0.98249381     0.38100
H679        H  0.60543111  0.66304375  0.17208086     0.33500
H680        H  0.60944245  0.63248641  0.14579505     0.30200
H681        H  0.63829745  0.59688779  0.01570740     0.33500
H682        H  0.61435959  0.60726119  0.04685275     0.30200
H683        H  0.75580876  0.68839499  0.16105641     0.38100
H684        H  0.72446469  0.65791232  0.19227285     0.33600
C685        C  0.62245008  0.91122304  0.01944881    -0.20200
C686        C  0.60619304  0.92749822  0.99822010     0.36000
C687        C  0.62461363  0.96395577  0.99249078    -0.26200
C688        C  0.65842707  0.98449351  0.00824727     0.02500
C689        C  0.67410703  0.96874611  0.03084832     0.27300
C690        C  0.65603346  0.93242950  0.03629097    -0.25300
N691        N  0.57124022  0.90720562  0.98246125    -0.82700
H692        H  0.61261908  0.97648030  0.97563694     0.13100
C693        C  0.67766669  0.02256079  0.00056158     0.02400
N694        N  0.70853981  0.98977321  0.04785842    -0.81200
H695        H  0.66880928  0.92064075  0.05298254     0.17900
C696        C  0.67860410  0.04505959  0.03192733    -0.26100
C697        C  0.69837380  0.08146998  0.02695578     0.36000
C698        C  0.71780841  0.09566328  0.98955695    -0.20100
C699        C  0.71660643  0.07276371  0.95819389    -0.25400
C700        C  0.69683319  0.03640471  0.96339086     0.27300
H701        H  0.66412651  0.03407112  0.06065576     0.13100
N702        N  0.69981334  0.10379969  0.06052317    -0.82600
H703        H  0.73142846  0.08325491  0.92958272     0.17900
N704        N  0.69639658  0.01342837  0.93129560    -0.81200
H705        H  0.68694715  0.08912627  0.08709010     0.33600
H706        H  0.68576446  0.11576588  0.05094994     0.38100
H707        H  0.71168982  0.02772569  0.90576020     0.33500
H708        H  0.70804971  0.99985632  0.94360752     0.30200
H709        H  0.71626253  0.97428983  0.06416520     0.33500
H710        H  0.72582737  0.00082921  0.02272206     0.30200
H711        H  0.55465531  0.89669954  0.00830963     0.38100
H712        H  0.56364638  0.92312431  0.96691481     0.33600
C713        C  0.60751183  0.80442569  0.90249460    -0.20200
C714        C  0.63754570  0.83363161  0.88575308     0.36000
C715        C  0.64205808  0.83717807  0.84188922    -0.26200
C716        C  0.61757160  0.81185298  0.81484278     0.02500
C717        C  0.58889088  0.78169445  0.83155633     0.27300
C718        C  0.58407895  0.77838572  0.87511521    -0.25300
N719        N  0.66228092  0.86042975  0.91299396    -0.82700
H720        H  0.66424555  0.86007984  0.82868406     0.13100
C721        C  0.62086886  0.81724831  0.76891035     0.02400
N722        N  0.56458167  0.75467722  0.80411513    -0.81200
H723        H  0.56125003  0.75575867  0.88776019     0.17900
C724        C  0.63875924  0.80430118  0.74561194    -0.26100
C725        C  0.63606582  0.80208235  0.70159625     0.36000
C726        C  0.61489906  0.81286274  0.68095462    -0.20100
C727        C  0.59906435  0.82807313  0.70412675    -0.25400
C728        C  0.60197122  0.83055523  0.74798344     0.27300
H729        H  0.65316974  0.79409588  0.76199061     0.13100
N730        N  0.65227666  0.78628390  0.67822477    -0.82600
H731        H  0.58287363  0.83635618  0.68807449     0.17900
N732        N  0.58483989  0.84539527  0.77145507    -0.81200
H733        H  0.66561299  0.77841167  0.69823398     0.33600
H734        H  0.67110332  0.80553383  0.65862321     0.38100
H735        H  0.57249519  0.85441175  0.75123470     0.33500
H736        H  0.56516451  0.82560103  0.78943946     0.30200
H737        H  0.54538265  0.73386822  0.82144807     0.33500
H738        H  0.55172151  0.76478238  0.78662410     0.30200
H739        H  0.67476590  0.84970308  0.93010802     0.38100
H740        H  0.68173419  0.88089917  0.89550226     0.33600
C741        C  0.61609083  0.81481395  0.18125224    -0.20200
C742        C  0.63595074  0.80134971  0.19942151     0.36000
C743        C  0.64013009  0.80250486  0.24326383    -0.26200
C744        C  0.62497687  0.81697832  0.26903575     0.02500
C745        C  0.60689776  0.83230114  0.25055794     0.27300
C746        C  0.60265162  0.83103407  0.20682515    -0.25300
N747        N  0.64940219  0.78414825  0.17367561    -0.82700
H748        H  0.65401661  0.79082325  0.25759348     0.13100
C749        C  0.62508734  0.81304536  0.31529663     0.02400
N750        N  0.59142043  0.84750358  0.27642915    -0.81200
H751        H  0.58714237  0.84103950  0.19275823     0.17900
C752        C  0.64071074  0.84286368  0.34071868    -0.26100
C753        C  0.63645160  0.84025785  0.38431142     0.36000
C754        C  0.61620722  0.80718126  0.40311647    -0.20100
C755        C  0.60216928  0.77721780  0.37797846    -0.25400
C756        C  0.60650323  0.77977909  0.33418532     0.27300
H757        H  0.65498969  0.86843263  0.32637896     0.13100
N758        N  0.65102940  0.87171099  0.40844040    -0.82600
H759        H  0.58639683  0.75186844  0.39241348     0.17900
N760        N  0.59077793  0.74887801  0.30869944    -0.81200
H761        H  0.66800106  0.87098630  0.43063734     0.33600
H762        H  0.63084435  0.87268225  0.42421433     0.38100
H763        H  0.57830634  0.72655245  0.32746345     0.33500
H764        H  0.57139355  0.74938925  0.29055908     0.30200
H765        H  0.57925470  0.85782223  0.25794701     0.33500
H766        H  0.57181189  0.82750414  0.29429333     0.30200
H767        H  0.66847146  0.80298855  0.15412042     0.38100
H768        H  0.66194923  0.77421149  0.19209969     0.33600
C769        C  0.09121723  0.37604027  0.88985531    -0.20200
C770        C  0.06758340  0.34929842  0.86277716     0.36000
C771        C  0.03147263  0.33486575  0.86840030    -0.26200
C772        C  0.01820197  0.34652008  0.90051814     0.02500
C773        C  0.04152936  0.37415012  0.92643310     0.27300
C774        C  0.07765011  0.38852377  0.92093811    -0.25300
N775        N  0.07991866  0.33641074  0.82969397    -0.82700
H776        H  0.01367001  0.31365678  0.84831955     0.13100
C777        C  0.98005174  0.32771147  0.90894838     0.02400
N778        N  0.02835194  0.38719899  0.95860004    -0.81200
H779        H  0.09523466  0.40918867  0.94173987     0.17900
C780        C  0.96802864  0.31155689  0.94804029    -0.26100
C781        C  0.93222090  0.29178296  0.95701335     0.36000
C782        C  0.90769535  0.28746910  0.92584811    -0.20100
C783        C  0.91982923  0.30468128  0.88711566    -0.25400
C784        C  0.95574730  0.32475556  0.87836914     0.27300
H785        H  0.98678677  0.31400854  0.97153505     0.13100
N786        N  0.92076766  0.27612793  0.99768024    -0.82600
H787        H  0.90124001  0.30173113  0.86312229     0.17900
N788        N  0.96764812  0.34189866  0.83853259    -0.81200
H789        H  0.94208150  0.28153295  0.01674464     0.33600
H790        H  0.90799077  0.28786981  0.01194758     0.38100
H791        H  0.94648653  0.33701464  0.81945517     0.33500
H792        H  0.98141461  0.36875420  0.84405942     0.30200
H793        H  0.04884049  0.40738715  0.97520801     0.33500
H794        H  0.01491118  0.39801997  0.94379514     0.30200
H795        H  0.06956308  0.30964063  0.83425322     0.38100
H796        H  0.07028470  0.33995661  0.80131952     0.33600
C797        C  0.37555603  0.28465572  0.81273520    -0.20200
C798        C  0.38209179  0.30688124  0.84763365     0.36000
C799        C  0.36441531  0.32565641  0.85109234    -0.26200
C800        C  0.34071670  0.32330331  0.82044522     0.02500
C801        C  0.33513731  0.30238692  0.78475535     0.27300
C802        C  0.35243785  0.28312230  0.78138784    -0.25300
N803        N  0.40566629  0.30953738  0.88028845    -0.82700
H804        H  0.36897932  0.34219677  0.87812816     0.13100
C805        C  0.32114381  0.34202351  0.82727275     0.02400
N806        N  0.31149621  0.30031524  0.75251472    -0.81200
H807        H  0.34750651  0.26650390  0.75435023     0.17900
C808        C  0.32415004  0.36721853  0.79836809    -0.26100
C809        C  0.30617591  0.38561153  0.80421142     0.36000
C810        C  0.28451185  0.37849174  0.83997963    -0.20100
C811        C  0.28208237  0.35347028  0.86905012    -0.25400
C812        C  0.29990162  0.33508614  0.86297121     0.27300
H813        H  0.34077875  0.37265692  0.77118739     0.13100
N814        N  0.30928127  0.41067682  0.77333304    -0.82600
H815        H  0.26563638  0.34765236  0.89646049     0.17900
N816        N  0.29604837  0.30890007  0.89260325    -0.81200
H817        H  0.32408811  0.41076800  0.74774724     0.33600
H818        H  0.32335678  0.43535752  0.78698547     0.38100
H819        H  0.27964145  0.30703664  0.91725558     0.33500
H820        H  0.28372509  0.28486800  0.87717754     0.30200
H821        H  0.31049650  0.28400928  0.72822346     0.33500
H822        H  0.28652107  0.28871927  0.76558903     0.30200
H823        H  0.43091513  0.32345441  0.86804131     0.38100
H824        H  0.40495450  0.32441075  0.90528463     0.33600
C825        C  0.31575426  0.53118161  0.91961807    -0.20200
C826        C  0.34891245  0.53377369  0.91654107     0.36000
C827        C  0.37848161  0.56316705  0.93334664    -0.26200
C828        C  0.37562898  0.58987686  0.95317651     0.02500
C829        C  0.34260505  0.58684903  0.95739921     0.27300
C830        C  0.31313193  0.55770718  0.94057579    -0.25300
N831        N  0.35256364  0.50675313  0.89640857    -0.82700
H832        H  0.40396201  0.56557582  0.93042604     0.13100
C833        C  0.40743706  0.62188313  0.96767223     0.02400
N834        N  0.33925698  0.61369503  0.97846076    -0.81200
H835        H  0.28800356  0.55612128  0.94319916     0.17900
C836        C  0.41856002  0.65309060  0.94569022    -0.26100
C837        C  0.44753601  0.68455650  0.95904208     0.36000
C838        C  0.46564610  0.68503485  0.99591772    -0.20100
C839        C  0.45461922  0.65332350  0.01742046    -0.25400
C840        C  0.42570623  0.62187321  0.00375538     0.27300
H841        H  0.40441631  0.65282292  0.91784673     0.13100
N842        N  0.45845103  0.71586346  0.93513126    -0.82600
H843        H  0.46806203  0.65309620  0.04566819     0.17900
N844        N  0.41443043  0.59007279  0.02676540    -0.81200
H845        H  0.44177109  0.71113223  0.90970553     0.33600
H846        H  0.48294520  0.72319359  0.92246312     0.38100
H847        H  0.43068445  0.59441585  0.05253897     0.33500
H848        H  0.38963561  0.58226441  0.03880220     0.30200
H849        H  0.31327636  0.60781971  0.97858154     0.33500
H850        H  0.34630123  0.61391706  0.00979204     0.30200
H851        H  0.33894570  0.48412121  0.91443479     0.38100
H852        H  0.37864183  0.51294147  0.89631530     0.33600
C853        C  0.09138652  0.37971054  0.39837555    -0.20200
C854        C  0.07643209  0.38324489  0.43604567     0.36000
C855        C  0.03993360  0.36575844  0.44037124    -0.26200
C856        C  0.01804735  0.34451234  0.40833402     0.02500
C857        C  0.03264516  0.34173965  0.37032516     0.27300
C858        C  0.06912838  0.35945599  0.36565973    -0.25300
N859        N  0.09814730  0.40331113  0.47046832    -0.82700
H860        H  0.02841094  0.36767012  0.46950108     0.13100
C861        C  0.98004064  0.32329514  0.41636200     0.02400
N862        N  0.01037168  0.32040432  0.33698393    -0.81200
H863        H  0.08024231  0.35679791  0.33659768     0.17900
C864        C  0.95752745  0.33394133  0.40015386    -0.26100
C865        C  0.92135352  0.31445550  0.40759707     0.36000
C866        C  0.90717958  0.28273633  0.43058127    -0.20100
C867        C  0.93024867  0.27273821  0.44749144    -0.25400
C868        C  0.96644478  0.29275785  0.44075774     0.27300
H869        H  0.96834747  0.35782966  0.38205340     0.13100
N870        N  0.89920282  0.32704348  0.39208143    -0.82600
H871        H  0.92004314  0.24884209  0.46543906     0.17900
N872        N  0.98956294  0.28217407  0.45842770    -0.81200
H873        H  0.91364905  0.35017361  0.37517955     0.33600
H874        H  0.88903390  0.33331291  0.41808941     0.38100
H875        H  0.97559401  0.25933914  0.47599318     0.33500
H876        H  0.00107401  0.27617400  0.43361348     0.30200
H877        H  0.02518423  0.32132924  0.31097308     0.33500
H878        H  0.99743411  0.29457107  0.34745883     0.30200
H879        H  0.11082010  0.39040351  0.48175924     0.38100
H880        H  0.08300194  0.40392602  0.49524014     0.33600
C881        C  0.28276078  0.37766069  0.35013908    -0.20200
C882        C  0.30385179  0.38190844  0.31479633     0.36000
C883        C  0.32221111  0.36365141  0.31279111    -0.26200
C884        C  0.32003673  0.34099589  0.34497082     0.02500
C885        C  0.30035125  0.33796380  0.38118839     0.27300
C886        C  0.28203993  0.35632748  0.38336959    -0.25300
N887        N  0.30549120  0.40345988  0.28016247    -0.82700
H888        H  0.33802536  0.36670182  0.28546291     0.13100
C889        C  0.33748849  0.31983615  0.33909951     0.02400
N890        N  0.29822988  0.31559286  0.41511950    -0.81200
H891        H  0.26642035  0.35329804  0.41088923     0.17900
C892        C  0.36086370  0.32058244  0.36936532    -0.26100
C893        C  0.37838494  0.30162198  0.36396970     0.36000
C894        C  0.37267455  0.28158579  0.32703794    -0.20100
C895        C  0.34910519  0.28086639  0.29700707    -0.25400
C896        C  0.33127060  0.29932202  0.30278671     0.27300
H897        H  0.36578740  0.33638377  0.39718577     0.13100
N898        N  0.40108895  0.30203359  0.39644788    -0.82600
H899        H  0.34418038  0.26544072  0.26884909     0.17900
N900        N  0.30639069  0.29688285  0.27207228    -0.81200
H901        H  0.39985932  0.31538454  0.42281909     0.33600
H902        H  0.42663730  0.31642832  0.38526312     0.38100
H903        H  0.30498285  0.28097557  0.24708154     0.33500
H904        H  0.28184515  0.28465275  0.28634168     0.30200
H905        H  0.28301568  0.31656815  0.43957109     0.33500
H906        H  0.28537946  0.28997982  0.40397136     0.30200
H907        H  0.31954155  0.42936584  0.29017678     0.38100
H908        H  0.31973621  0.40133956  0.25534477     0.33600
C909        C  0.19862305  0.38531206  0.50918814    -0.20200
C910        C  0.22895806  0.40153732  0.53412279     0.36000
C911        C  0.22626346  0.39550655  0.57753377    -0.26200
C912        C  0.19381501  0.37375343  0.59635761     0.02500
C913        C  0.16392290  0.35557738  0.57100971     0.27300
C914        C  0.16666882  0.36133906  0.52745820    -0.25300
N915        N  0.26208357  0.42517450  0.51537314    -0.82700
H916        H  0.24919015  0.40943738  0.59706816     0.13100
C917        C  0.19095133  0.37412276  0.64265728     0.02400
N918        N  0.13070839  0.33261074  0.58993832    -0.81200
H919        H  0.14342367  0.34900352  0.50818961     0.17900
C920        C  0.17079774  0.38731124  0.66013038    -0.26100
C921        C  0.17112174  0.39304511  0.70344187     0.36000
C922        C  0.19131446  0.38462029  0.72976439    -0.20100
C923        C  0.21024147  0.36996781  0.71267654    -0.25400
C924        C  0.21066213  0.36506659  0.66917415     0.27300
H925        H  0.15616346  0.39480882  0.63961642     0.13100
N926        N  0.15216944  0.40862651  0.72070739    -0.82600
H927        H  0.22643619  0.36440170  0.73305953     0.17900
N928        N  0.23197283  0.35222679  0.65165687    -0.81200
H929        H  0.13898981  0.41372529  0.69705397     0.33600
H930        H  0.13311482  0.39034212  0.74078014     0.38100
H931        H  0.24533402  0.34739962  0.67534613     0.33500
H932        H  0.21535165  0.32826404  0.63748663     0.30200
H933        H  0.11123903  0.32161568  0.56708547     0.33500
H934        H  0.13231501  0.31205663  0.60375382     0.30200
H935        H  0.26815565  0.41082537  0.49446773     0.38100
H936        H  0.28175971  0.43519979  0.53804150     0.33600
C937        C  0.18898653  0.38900006  0.23139118    -0.20200
C938        C  0.20054279  0.36764766  0.21281705     0.36000
C939        C  0.19966840  0.36413155  0.16882734    -0.26200
C940        C  0.18699227  0.38109779  0.14323850     0.02500
C941        C  0.17376453  0.40095114  0.16194110     0.27300
C942        C  0.17509143  0.40487127  0.20581921    -0.25300
N943        N  0.21546327  0.35173876  0.23841137    -0.82700
H944        H  0.21000635  0.34910752  0.15428789     0.13100
C945        C  0.19100205  0.38109621  0.09692645     0.02400
N946        N  0.16027169  0.41811774  0.13614537    -0.81200
H947        H  0.16657911  0.42155120  0.22006418     0.17900
C948        C  0.16163567  0.36192411  0.07144637    -0.26100
C949        C  0.16411156  0.36500014  0.02736875     0.36000
C950        C  0.19660706  0.38787697  0.00861909    -0.20100
C951        C  0.22616429  0.40589941  0.03416683    -0.25400
C952        C  0.22370736  0.40277747  0.07808367     0.27300
H953        H  0.13653348  0.34552153  0.08610479     0.13100
N954        N  0.13336817  0.34708320  0.00187637    -0.82600
H955        H  0.25099429  0.42380913  0.01981024     0.17900
N956        N  0.25402238  0.42267006  0.10374749    -0.81200
H957        H  0.11134654  0.33264175  0.02062777     0.33600
H958        H  0.13606998  0.32907810  0.98346294     0.38100
H959        H  0.27607340  0.43720423  0.08507067     0.33500
H960        H  0.25017166  0.44064121  0.12072283     0.30200
H961        H  0.15133347  0.43147355  0.15471499     0.33500
H962        H  0.18090211  0.43693765  0.11823398     0.30200
H963        H  0.19555693  0.33307388  0.25727604     0.38100
H964        H  0.22423076  0.33826544  0.21979059     0.33600
C965        C  0.47277461  0.68421629  0.48721059    -0.20200
C966        C  0.45410429  0.68459581  0.45128401     0.36000
C967        C  0.42452271  0.65354742  0.43823296    -0.26200
C968        C  0.41350821  0.62208919  0.45967998     0.02500
C969        C  0.43307709  0.62119413  0.49390159     0.27300
C970        C  0.46251105  0.65213661  0.50716956    -0.25300
N971        N  0.46485196  0.71635576  0.42838001    -0.82700
H972        H  0.40965114  0.65387354  0.41143881     0.13100
C973        C  0.38043940  0.59063990  0.44731796     0.02400
N974        N  0.42230905  0.58903851  0.51589582    -0.81200
H975        H  0.47666988  0.65126361  0.53437703     0.17900
C976        C  0.38080084  0.56078558  0.43348045    -0.26100
C977        C  0.34978904  0.53056403  0.42174259     0.36000
C978        C  0.31785681  0.53054332  0.42315246    -0.20100
C979        C  0.31756744  0.56019337  0.43817767    -0.25400
C980        C  0.34846791  0.59013885  0.45043728     0.27300
H981        H  0.40540777  0.56115225  0.43179150     0.13100
N982        N  0.35061241  0.49993344  0.40869443    -0.82600
H983        H  0.29321823  0.56036519  0.43941535     0.17900
N984        N  0.34757608  0.62011928  0.46603745    -0.81200
H985        H  0.37610985  0.50436803  0.40931190     0.33600
H986        H  0.33648549  0.48035536  0.43073631     0.38100
H987        H  0.32205350  0.61562291  0.46616907     0.33500
H988        H  0.35574808  0.62366809  0.49729456     0.30200
H989        H  0.43961649  0.59273453  0.54024935     0.33500
H990        H  0.39819395  0.58147598  0.52984290     0.30200
H991        H  0.48914206  0.72380366  0.41499642     0.38100
H992        H  0.44783608  0.71215308  0.40348999     0.33600
C993        C  0.28553971  0.90974536  0.73446252    -0.20200
C994        C  0.31208753  0.92455643  0.76543120     0.36000
C995        C  0.33036162  0.96083956  0.77125542    -0.26200
C996        C  0.32337873  0.98259025  0.74637756     0.02500
C997        C  0.29836852  0.96837318  0.71431742     0.27300
C998        C  0.27978416  0.93213856  0.70854795    -0.25300
N999        N  0.32003804  0.90295759  0.79150102    -0.82700
H1000       H  0.35009399  0.97231059  0.79545697     0.13100
C1001       C  0.34218468  0.02037013  0.75454983     0.02400
N1002       N  0.29156177  0.99081829  0.68829820    -0.81200
H1003       H  0.26000622  0.92137169  0.68436367     0.17900
C1004       C  0.36961627  0.04235525  0.72813860    -0.26100
C1005       C  0.38746826  0.07862919  0.73384921     0.36000
C1006       C  0.37719681  0.09322187  0.76673863    -0.20100
C1007       C  0.34995625  0.07064378  0.79366823    -0.25400
C1008       C  0.33223240  0.03439965  0.78770370     0.27300
H1009       H  0.37696668  0.03106024  0.70277554     0.13100
N1010       N  0.41532970  0.10043084  0.70569265    -0.82600
H1011       H  0.34181098  0.08127033  0.81894954     0.17900
N1012       N  0.30376562  0.01176417  0.81466196    -0.81200
H1013       H  0.41778674  0.08561039  0.68185571     0.33600
H1014       H  0.43854517  0.11117674  0.72279936     0.38100
H1015       H  0.29976289  0.02618103  0.83768112     0.33500
H1016       H  0.28113422  0.99993161  0.79641542     0.30200
H1017       H  0.27253393  0.97628540  0.66591003     0.33500
H1018       H  0.28117204  0.00253140  0.70742831     0.30200
H1019       H  0.33134814  0.89219462  0.77229716     0.38100
H1020       H  0.33884729  0.91793859  0.81390857     0.33600
C1021       C  0.90825716  0.62116357  0.65055348    -0.20200
C1022       C  0.92141404  0.61810001  0.68991502     0.36000
C1023       C  0.95764362  0.63592470  0.69678845    -0.26200
C1024       C  0.98097451  0.65618000  0.66517445     0.02500
C1025       C  0.96810366  0.65845087  0.62563669     0.27300
C1026       C  0.93192257  0.64101700  0.61875078    -0.25300
N1027       N  0.89811989  0.59828395  0.72340861    -0.82700
H1028       H  0.96781872  0.63428321  0.72707186     0.13100
C1029       C  0.01887085  0.67610125  0.67415950     0.02400
N1030       N  0.99188245  0.67911589  0.59295330    -0.81200
H1031       H  0.92212831  0.64343925  0.58855985     0.17900
C1032       C  0.04120231  0.66728664  0.65339432    -0.26100
C1033       C  0.07755613  0.68707310  0.65866954     0.36000
C1034       C  0.09201502  0.71687942  0.68505977    -0.20100
C1035       C  0.06916672  0.72476330  0.70692374    -0.25400
C1036       C  0.03285269  0.70481530  0.70158084     0.27300
H1037       H  0.03011675  0.64495896  0.63260624     0.13100
N1038       N  0.09958308  0.67718169  0.63663477    -0.82600
H1039       H  0.07961751  0.74717785  0.72751092     0.17900
N1040       N  0.01012525  0.71412517  0.72301708    -0.81200
H1041       H  0.08484725  0.65589087  0.61699597     0.33600
H1042       H  0.11092334  0.66866652  0.65900255     0.38100
H1043       H  0.02447451  0.73587951  0.74213875     0.33500
H1044       H  0.99804474  0.72153748  0.70033944     0.30200
H1045       H  0.97829399  0.67800934  0.56567515     0.33500
H1046       H  0.00471884  0.70510280  0.60282183     0.30200
H1047       H  0.88662217  0.57194130  0.71537787     0.38100
H1048       H  0.91197819  0.60123412  0.75107692     0.33600
C1049       C  0.20591608  0.68374844  0.76727810    -0.20200
C1050       C  0.17496947  0.65165451  0.76069341     0.36000
C1051       C  0.17358537  0.62040692  0.77196761    -0.26200
C1052       C  0.20256719  0.62060590  0.78980643     0.02500
C1053       C  0.23278298  0.65264023  0.79885307     0.27300
C1054       C  0.23411591  0.68391520  0.78762631    -0.25300
N1055       N  0.14502176  0.65061904  0.74214504    -0.82700
H1056       H  0.15015679  0.59583100  0.76551290     0.13100
C1057       C  0.20168520  0.58723042  0.79741005     0.02400
N1058       N  0.26225817  0.65316171  0.81847549    -0.81200
H1059       H  0.25792158  0.70840474  0.79299477     0.17900
C1060       C  0.22600445  0.58097243  0.77692228    -0.26100
C1061       C  0.22818234  0.55105023  0.78563185     0.36000
C1062       C  0.20589610  0.52717845  0.81634916    -0.20100
C1063       C  0.17978295  0.53238107  0.83435919    -0.25400
C1064       C  0.17754655  0.56219160  0.82532254     0.27300
H1065       H  0.24372791  0.59988979  0.75440738     0.13100
N1066       N  0.25337340  0.54538833  0.76397067    -0.82600
H1067       H  0.16188191  0.51392500  0.85708981     0.17900
N1068       N  0.15165097  0.56769923  0.84542899    -0.81200
H1069       H  0.26823772  0.56594864  0.74337508     0.33600
H1070       H  0.23957582  0.52313567  0.74542569     0.38100
H1071       H  0.13568993  0.54663774  0.86486457     0.33500
H1072       H  0.16466194  0.58949332  0.86485845     0.30200
H1073       H  0.28256697  0.67878892  0.82254261     0.33500
H1074       H  0.25453239  0.64244969  0.84844871     0.30200
H1075       H  0.13870291  0.63556573  0.71489173     0.38100
H1076       H  0.12417523  0.63810766  0.76308618     0.33600
C1077       C  0.47247428  0.79025313  0.59625793    -0.20200
C1078       C  0.46374342  0.81514754  0.58152762     0.36000
C1079       C  0.43482292  0.81594349  0.59829160    -0.26200
C1080       C  0.41405810  0.79231072  0.62940506     0.02500
C1081       C  0.42332928  0.76840764  0.64547012     0.27300
C1082       C  0.45237398  0.76764964  0.62886157    -0.25300
N1083       N  0.48348903  0.83919947  0.54883523    -0.82700
H1084       H  0.42784848  0.83441596  0.58588681     0.13100
C1085       C  0.38141788  0.79126516  0.64298256     0.02400
N1086       N  0.40283522  0.74465100  0.67824529    -0.81200
H1087       H  0.45880867  0.74871951  0.64096441     0.17900
C1088       C  0.34940260  0.76100759  0.63550086    -0.26100
C1089       C  0.31785695  0.75843663  0.64811871     0.36000
C1090       C  0.31790763  0.78693212  0.66816067    -0.20100
C1091       C  0.35013495  0.81738479  0.67543842    -0.25400
C1092       C  0.38185928  0.81977867  0.66318957     0.27300
H1093       H  0.34891105  0.73898512  0.62005186     0.13100
N1094       N  0.28598348  0.72627923  0.64177523    -0.82600
H1095       H  0.35063190  0.83932491  0.69106598     0.17900
N1096       N  0.41451513  0.85077075  0.67177823    -0.81200
H1097       H  0.28793721  0.70652646  0.65730329     0.33600
H1098       H  0.28338872  0.72068126  0.60971188     0.38100
H1099       H  0.41037480  0.86932771  0.68686476     0.33500
H1100       H  0.42827067  0.84403112  0.69282488     0.30200
H1101       H  0.41288711  0.72855990  0.68646233     0.33500
H1102       H  0.40508566  0.75947661  0.70477449     0.30200
H1103       H  0.46666459  0.83534166  0.52384209     0.38100
H1104       H  0.49295959  0.86449438  0.56017494     0.33600
C1105       C  0.27941687  0.90900619  0.22740332    -0.20200
C1106       C  0.31024129  0.92435275  0.25175737     0.36000
C1107       C  0.32975539  0.96070650  0.25597771    -0.26200
C1108       C  0.31940450  0.98220975  0.23604070     0.02500
C1109       C  0.28974659  0.96736323  0.21010331     0.27300
C1110       C  0.27016212  0.93097359  0.20586900    -0.25300
N1111       N  0.32182316  0.90332048  0.27259158    -0.82700
H1112       H  0.35285361  0.97222835  0.27553181     0.13100
C1113       C  0.33863548  0.02008556  0.24452597     0.02400
N1114       N  0.27914636  0.98927738  0.18909828    -0.81200
H1115       H  0.24690435  0.91979873  0.18665041     0.17900
C1116       C  0.35781816  0.04335927  0.21236914    -0.26100
C1117       C  0.37543487  0.07957352  0.21907791     0.36000
C1118       C  0.37330329  0.09267281  0.25886895    -0.20100
C1119       C  0.35400846  0.06909168  0.29094868    -0.25400
C1120       C  0.33672359  0.03293922  0.28419333     0.27300
H1121       H  0.35891721  0.03314912  0.18189582     0.13100
N1122       N  0.39415202  0.10289224  0.18511860    -0.82600
H1123       H  0.35220312  0.07893156  0.32137350     0.17900
N1124       N  0.31673420  0.00915422  0.31721144    -0.81200
H1125       H  0.39028015  0.08903089  0.15722684     0.33600
H1126       H  0.42073329  0.11438515  0.19181107     0.38100
H1127       H  0.31807847  0.02276271  0.34455402     0.33500
H1128       H  0.29060116  0.99603735  0.30789832     0.30200
H1129       H  0.25687553  0.97430156  0.17098372     0.33500
H1130       H  0.27212294  0.00143625  0.21208236     0.30200
H1131       H  0.34690820  0.91081086  0.26184399     0.38100
H1132       H  0.32334253  0.90859895  0.30470164     0.33600
C1133       C  0.08736358  0.71791670  0.18058881    -0.20200
C1134       C  0.06289711  0.72213766  0.20472904     0.36000
C1135       C  0.02719423  0.70191859  0.19590089    -0.26200
C1136       C  0.01494648  0.67729207  0.16347411     0.02500
C1137       C  0.03898600  0.67258609  0.13949604     0.27300
C1138       C  0.07485277  0.69286132  0.14828721    -0.25300
N1139       N  0.07394959  0.74706219  0.23808777    -0.82700
H1140       H  0.00883973  0.70578618  0.21430823     0.13100
C1141       C  0.97681882  0.65685741  0.15526132     0.02400
N1142       N  0.02687308  0.64725403  0.10633312    -0.81200
H1143       H  0.09310081  0.68931645  0.12929101     0.17900
C1144       C  0.96370253  0.65911903  0.11602250    -0.26100
C1145       C  0.92753904  0.64223203  0.10846468     0.36000
C1146       C  0.90406226  0.62328253  0.14116205    -0.20100
C1147       C  0.91739020  0.62000637  0.17984121    -0.25400
C1148       C  0.95343187  0.63636555  0.18710524     0.27300
H1149       H  0.98175725  0.67463940  0.09147642     0.13100
N1150       N  0.91464428  0.64423494  0.06781550    -0.82600
H1151       H  0.89960661  0.60534341  0.20501248     0.17900
N1152       N  0.96646287  0.63254191  0.22685712    -0.81200
H1153       H  0.93529851  0.65913432  0.04736795     0.33600
H1154       H  0.90145096  0.61898963  0.05548203     0.38100
H1155       H  0.94590128  0.61681622  0.24702589     0.33500
H1156       H  0.98022401  0.61942775  0.22150067     0.30200
H1157       H  0.04785121  0.64714526  0.09146930     0.33500
H1158       H  0.01185114  0.62265454  0.11996566     0.30200
H1159       H  0.06520081  0.76453529  0.23154656     0.38100
H1160       H  0.06192778  0.73381216  0.26575601     0.33600
C1161       C  0.18073527  0.80589137  0.84795962    -0.20200
C1162       C  0.16661707  0.77602574  0.87381293     0.36000
C1163       C  0.16238294  0.77926056  0.91697381    -0.26200
C1164       C  0.17218088  0.81179740  0.93478818     0.02500
C1165       C  0.18346656  0.84111812  0.90854522     0.27300
C1166       C  0.18738471  0.83785928  0.86512636    -0.25300
N1167       N  0.15814638  0.74281442  0.85630336    -0.82700
H1168       H  0.15368786  0.75678327  0.93728317     0.13100
C1169       C  0.17754249  0.81574997  0.98083576     0.02400
N1170       N  0.19292657  0.87440334  0.92657609    -0.81200
H1171       H  0.19811062  0.86078572  0.84527975     0.17900
C1172       C  0.21067642  0.82493379  0.99612849    -0.26100
C1173       C  0.21657930  0.82382544  0.03917337     0.36000
C1174       C  0.18865511  0.81305475  0.06764664    -0.20100
C1175       C  0.15594810  0.80620239  0.05265944    -0.25400
C1176       C  0.15009102  0.80735080  0.00929579     0.27300
H1177       H  0.23174783  0.83168706  0.97409536     0.13100
N1178       N  0.25066371  0.83271891  0.05408948    -0.82600
H1179       H  0.13448330  0.79797213  0.07448468     0.17900
N1180       N  0.11625049  0.79881619  0.99395786    -0.81200
H1181       H  0.26825080  0.83979723  0.02915585     0.33600
H1182       H  0.25953514  0.85476855  0.07310384     0.38100
H1183       H  0.09886537  0.79295422  0.01890876     0.33500
H1184       H  0.11868641  0.82111464  0.97950145     0.30200
H1185       H  0.20123436  0.89349434  0.90323801     0.33500
H1186       H  0.17040612  0.87248548  0.93971544     0.30200
H1187       H  0.13807323  0.73602521  0.83459763     0.38100
H1188       H  0.14832652  0.72349941  0.87944669     0.33600
C1189       C  0.19877424  0.81270520  0.56923248    -0.20200
C1190       C  0.16821392  0.81034997  0.55204600     0.36000
C1191       C  0.16569456  0.81331652  0.50826727    -0.26200
C1192       C  0.19295932  0.81844215  0.48141600     0.02500
C1193       C  0.22397154  0.82224537  0.49867226     0.27300
C1194       C  0.22654795  0.81935258  0.54229522    -0.25300
N1195       N  0.13918319  0.80313471  0.57869382    -0.82700
H1196       H  0.14182643  0.81013897  0.49480456     0.13100
C1197       C  0.18753011  0.81557520  0.43520051     0.02400
N1198       N  0.25229124  0.82783738  0.47162897    -0.81200
H1199       H  0.24998377  0.82112328  0.55526891     0.17900
C1200       C  0.20485699  0.84533704  0.40974535    -0.26100
C1201       C  0.20447139  0.84245431  0.36565755     0.36000
C1202       C  0.18687604  0.80911355  0.34693994    -0.20100
C1203       C  0.16825709  0.77959985  0.37235186    -0.25400
C1204       C  0.16817326  0.78250581  0.41626947     0.27300
H1205       H  0.21981041  0.87066936  0.42440179     0.13100
N1206       N  0.22396151  0.87292752  0.34003432    -0.82600
H1207       H  0.15510673  0.75403427  0.35792922     0.17900
N1208       N  0.14973251  0.75184588  0.44187773    -0.81200
H1209       H  0.23638955  0.89528792  0.35867221     0.33600
H1210       H  0.20615993  0.87573250  0.32130572     0.38100
H1211       H  0.13653242  0.72961452  0.42315799     0.33500
H1212       H  0.16819508  0.74889847  0.45903629     0.30200
H1213       H  0.27333609  0.83033751  0.48921156     0.33500
H1214       H  0.24377547  0.80555984  0.45313090     0.30200
H1215       H  0.12954349  0.77810655  0.59108751     0.38100
H1216       H  0.11892221  0.80250464  0.56119384     0.33600
C1217       C  0.20643127  0.68339029  0.25585660    -0.20200
C1218       C  0.18533469  0.65049886  0.23630755     0.36000
C1219       C  0.18493951  0.62072276  0.25237023    -0.26200
C1220       C  0.20518847  0.62290098  0.28707790     0.02500
C1221       C  0.22495444  0.65498475  0.30774127     0.27300
C1222       C  0.22551059  0.68488601  0.29190940    -0.25300
N1223       N  0.16494854  0.64727129  0.19974232    -0.82700
H1224       H  0.16966091  0.59580106  0.23687351     0.13100
C1225       C  0.20697533  0.59175001  0.30013912     0.02400
N1226       N  0.24462424  0.65702937  0.34453083    -0.81200
H1227       H  0.24132676  0.70956378  0.30765460     0.17900
C1228       C  0.23725847  0.59042615  0.29142869    -0.26100
C1229       C  0.24063151  0.56182243  0.30394901     0.36000
C1230       C  0.21270472  0.53353106  0.32527225    -0.20100
C1231       C  0.18215626  0.53494039  0.33343453    -0.25400
C1232       C  0.17907129  0.56377799  0.32112550     0.27300
H1233       H  0.25858794  0.61215142  0.27523649     0.13100
N1234       N  0.27265803  0.56200312  0.29593938    -0.82600
H1235       H  0.16063293  0.51358078  0.34981361     0.17900
N1236       N  0.14788119  0.56495527  0.33008889    -0.81200
H1237       H  0.28993162  0.58413585  0.27881920     0.33600
H1238       H  0.28457432  0.56392104  0.32488263     0.38100
H1239       H  0.12970891  0.54227190  0.34562694     0.33500
H1240       H  0.15452805  0.58561387  0.35082705     0.30200
H1241       H  0.25788542  0.68252261  0.35606088     0.33500
H1242       H  0.22684778  0.64170822  0.36775856     0.30200
H1243       H  0.18229731  0.65927959  0.17487108     0.38100
H1244       H  0.14932153  0.62110482  0.19126828     0.33600
C1245       C  0.47017223  0.79471314  0.09833670    -0.20200
C1246       C  0.47101933  0.82703436  0.09831030     0.36000
C1247       C  0.44120602  0.82847360  0.11022256    -0.26200
C1248       C  0.41050362  0.79810614  0.12191647     0.02500
C1249       C  0.41000238  0.76610674  0.12362846     0.27300
C1250       C  0.43983972  0.76473306  0.11196491    -0.25300
N1251       N  0.50208442  0.85840860  0.08647188    -0.82700
H1252       H  0.44184131  0.85324225  0.10974742     0.13100
C1253       C  0.37887677  0.79970349  0.13301236     0.02400
N1254       N  0.37891898  0.73503500  0.13669972    -0.81200
H1255       H  0.43892414  0.73983625  0.11204493     0.17900
C1256       C  0.35005947  0.78480637  0.10596984    -0.26100
C1257       C  0.31811643  0.78208146  0.11759809     0.36000
C1258       C  0.31506059  0.79466210  0.15722269    -0.20100
C1259       C  0.34466621  0.81093536  0.18334631    -0.25400
C1260       C  0.37627755  0.81304849  0.17193666     0.27300
H1261       H  0.35234069  0.77452071  0.07607046     0.13100
N1262       N  0.28882161  0.76616731  0.08957958    -0.82600
H1263       H  0.34277545  0.82060809  0.21383501     0.17900
N1264       N  0.40534745  0.82744286  0.20038076    -0.81200
H1265       H  0.29530553  0.75771885  0.06219943     0.33600
H1266       H  0.28302985  0.78538879  0.08053717     0.38100
H1267       H  0.39920193  0.83609245  0.22783102     0.33500
H1268       H  0.40984889  0.80729962  0.20923483     0.30200
H1269       H  0.38265942  0.71354632  0.13585033     0.33500
H1270       H  0.37431054  0.73836867  0.16803988     0.30200
H1271       H  0.49609671  0.86948873  0.06116732     0.38100
H1272       H  0.50962169  0.87582365  0.11162066     0.33600
loop_ 
_geom_bond_atom_site_label_1 
_geom_bond_atom_site_label_2 
_geom_bond_distance 
_geom_bond_site_symmetry_2 
_ccdc_geom_bond_type 
Fe1          O17   2.053       .  S
Fe1           O7   2.098       .  S
Fe1          O14   2.099       .  S
Fe1           O6   2.047       .  S
Fe1          O12   1.938       .  S
Fe2           O5   2.047       .  S
Fe2           O9   2.092       .  S
Fe2          O13   2.045       .  S
Fe2          O18   2.090       .  S
Fe2          O12   1.941       .  S
Fe3          O21   2.111       .  S
Fe3           O8   2.048       .  S
Fe3          O15   2.052       .  S
Fe3           O4   2.105       .  S
Fe3          O12   1.950       .  S
O4           C11   1.274       .  A
O5           C19   1.265       .  A
O6           C11   1.266       .  A
O7           C10   1.278       .  A
O8           C20   1.270       .  A
O9           C22   1.276       .  A
C10          O15   1.271       .  A
C10        C1133   1.494       .  S
C11        C1174   1.483       .  S
O13          C16   1.267       .  A
O14          C16   1.276       .  A
C16        C1258   1.492       .  S
O17          C22   1.267       .  A
O18          C20   1.276       .  A
C19          O21   1.275       .  A
C19        C1202   1.480       .  S
C20        C1105   1.489       .  S
C22        C1217   1.496       .  S
Fe23         O39   2.049       .  S
Fe23         O29   2.083       .  S
Fe23         O36   2.086       .  S
Fe23         O28   2.054       .  S
Fe23         O34   1.949       .  S
Fe24         O27   2.056       .  S
Fe24         O31   2.078       .  S
Fe24         O35   2.066       .  S
Fe24         O40   2.075       .  S
Fe24         O34   1.954       .  S
Fe25         O43   2.103       .  S
Fe25         O30   2.056       .  S
Fe25         O37   2.059       .  S
Fe25         O26   2.107       .  S
Fe25         O34   1.962       .  S
O26          C33   1.276       .  A
O27          C41   1.268       .  A
O28          C33   1.268       .  A
O29          C32   1.273       .  A
O30          C42   1.271       .  A
O31          C44   1.272       .  A
C32          O37   1.270       .  A
C32        C1034   1.495       .  S
C33        C1189   1.490       .  S
O35          C38   1.270       .  A
O36          C38   1.273       .  A
C38        C1090   1.494       .  S
O39          C44   1.267       .  A
O40          C42   1.272       .  A
C41          O43   1.274       .  A
C41        C1161   1.484       .  S
C42         C993   1.490       .  S
C44        C1049   1.480       .  S
Fe45         O61   2.050       .  S
Fe45         O51   2.092       .  S
Fe45         O58   2.087       .  S
Fe45         O50   2.042       .  S
Fe45         O56   1.945       .  S
Fe46         O49   2.051       .  S
Fe46         O53   2.096       .  S
Fe46         O57   2.053       .  S
Fe46         O62   2.097       .  S
Fe46         O56   1.941       .  S
Fe47         O65   2.107       .  S
Fe47         O52   2.057       .  S
Fe47         O59   2.060       .  S
Fe47         O48   2.100       .  S
Fe47         O56   1.952       .  S
O48          C55   1.275       .  A
O49          C63   1.266       .  A
O50          C55   1.266       .  A
O51          C54   1.275       .  A
O52          C64   1.269       .  A
O53          C66   1.276       .  A
C54          O59   1.271       .  A
C54         C853   1.491       .  S
C55         C909   1.473       .  S
O57          C60   1.266       .  A
O58          C60   1.273       .  A
C60         C978   1.484       .  S
O61          C66   1.269       .  A
O62          C64   1.276       .  A
C63          O65   1.276       .  A
C63         C937   1.482       .  S
C64         C881   1.494       .  S
C66        C1230   1.492       .  S
Fe67         O83   2.044       .  S
Fe67         O73   2.088       .  S
Fe67         O80   2.092       .  S
Fe67         O72   2.044       .  S
Fe67         O78   1.936       .  S
Fe68         O71   2.045       .  S
Fe68         O75   2.087       .  S
Fe68         O79   2.061       .  S
Fe68         O84   2.089       .  S
Fe68         O78   1.945       .  S
Fe69         O87   2.100       .  S
Fe69         O74   2.056       .  S
Fe69         O81   2.062       .  S
Fe69         O70   2.111       .  S
Fe69         O78   1.949       .  S
O70          C77   1.277       .  A
O71          C85   1.266       .  A
O72          C77   1.266       .  A
O73          C76   1.275       .  A
O74          C86   1.272       .  A
O75          C88   1.272       .  A
C76          O81   1.270       .  A
C76         C769   1.495       .  S
C77         C950   1.482   1_556  S
O79          C82   1.270       .  A
O80          C82   1.276       .  A
C82         C825   1.494       .  S
O83          C88   1.266       .  A
O84          C86   1.274       .  A
C85          O87   1.275       .  A
C85         C922   1.469       .  S
C86         C810   1.493       .  S
C88        C1062   1.490       .  S
Fe89        O105   2.051       .  S
Fe89         O95   2.093       .  S
Fe89        O102   2.101   1_554  S
Fe89         O94   2.044   1_554  S
Fe89        O100   1.946       .  S
Fe90         O93   2.047       .  S
Fe90         O97   2.092       .  S
Fe90        O101   2.057       .  S
Fe90        O106   2.094       .  S
Fe90        O100   1.945       .  S
Fe91        O109   2.102       .  S
Fe91         O96   2.062       .  S
Fe91        O103   2.057       .  S
Fe91         O92   2.101   1_554  S
Fe91        O100   1.953       .  S
O92          C99   1.276       .  A
O93         C107   1.267       .  A
O94          C99   1.268       .  A
O95          C98   1.274       .  A
O96         C108   1.270       .  A
O97         C110   1.274       .  A
C98         O103   1.271       .  A
C98         C685   1.496       .  S
C99         C713   1.485       .  S
O101        C104   1.270       .  A
O102        C104   1.277   1_556  A
C104        C838   1.499   1_554  S
O105        C110   1.266       .  A
O106        C108   1.276       .  A
C107        O109   1.275       .  A
C107        C741   1.476       .  S
C108        C670   1.493       .  S
C110       C1245   1.483       .  S
Fe111       O127   2.050       .  S
Fe111       O117   2.085       .  S
Fe111       O124   2.083       .  S
Fe111       O116   2.047       .  S
Fe111       O122   1.947       .  S
Fe112       O115   2.046       .  S
Fe112       O119   2.095       .  S
Fe112       O123   2.056       .  S
Fe112       O128   2.092       .  S
Fe112       O122   1.943       .  S
Fe113       O131   2.099       .  S
Fe113       O118   2.054       .  S
Fe113       O125   2.048       .  S
Fe113       O114   2.098       .  S
Fe113       O122   1.953       .  S
O114        C121   1.275       .  A
O115        C129   1.267       .  A
O116        C121   1.266       .  A
O117        C120   1.274       .  A
O118        C130   1.268       .  A
O119        C132   1.276       .  A
C120        O125   1.267       .  A
C120        C629   1.491       .  S
C121        C754   1.474       .  S
O123        C126   1.269       .  A
O124        C126   1.272       .  A
C126        C965   1.492       .  S
O127        C132   1.267       .  A
O128        C130   1.275       .  A
C129        O131   1.274       .  A
C129        C726   1.474       .  S
C130        C614   1.483       .  S
C132       C1077   1.496       .  S
Fe133       O149   2.055       .  S
Fe133       O139   2.085       .  S
Fe133       O146   2.088       .  S
Fe133       O138   2.048       .  S
Fe133       O144   1.940       .  S
Fe134       O137   2.044       .  S
Fe134       O141   2.083       .  S
Fe134       O145   2.051       .  S
Fe134       O150   2.073       .  S
Fe134       O144   1.944       .  S
Fe135       O153   2.105       .  S
Fe135       O140   2.068       .  S
Fe135       O147   2.071       .  S
Fe135       O136   2.105       .  S
Fe135       O144   1.956       .  S
O136        C143   1.276       .  A
O137        C151   1.267       .  A
O138        C143   1.267       .  A
O139        C142   1.274       .  A
O140        C152   1.272       .  A
O141        C154   1.272       .  A
C142        O147   1.273       .  A
C142        C866   1.498       .  S
C143        C530   1.478       .  S
O145        C148   1.268       .  A
O146        C148   1.274       .  A
C148        C573   1.489       .  S
O149        C154   1.268       .  A
O150        C152   1.271       .  A
C151        O153   1.276       .  A
C151        C489   1.475       .  S
C152        C642   1.482       .  S
C154        C545   1.484       .  S
Fe155       O171   2.045       .  S
Fe155       O161   2.083       .  S
Fe155       O168   2.080       .  S
Fe155       O160   2.042       .  S
Fe155       O166   1.944       .  S
Fe156       O159   2.053       .  S
Fe156       O163   2.085       .  S
Fe156       O167   2.060   1_554  S
Fe156       O172   2.081       .  S
Fe156       O166   1.944   1_554  S
Fe157       O175   2.106   1_556  S
Fe157       O162   2.062       .  S
Fe157       O169   2.064       .  S
Fe157       O158   2.107       .  S
Fe157       O166   1.949       .  S
O158        C165   1.278       .  A
O159        C173   1.269       .  A
O160        C165   1.267       .  A
O161        C164   1.272       .  A
O162        C174   1.271       .  A
O163        C176   1.274   1_554  A
C164        O169   1.270       .  A
C164        C782   1.489       .  S
C165        C502   1.480       .  S
O167        C170   1.269       .  A
O168        C170   1.272       .  A
C170        C474   1.483       .  S
O171        C176   1.266       .  A
O172        C174   1.272   1_554  A
C173        O175   1.277       .  A
C173        C517   1.481       .  S
C174        C698   1.491       .  S
C176        C433   1.486   1_556  S
Fe177       O193   2.048       .  S
Fe177       O183   2.080       .  S
Fe177       O190   2.087       .  S
Fe177       O182   2.053       .  S
Fe177       O188   1.948       .  S
Fe178       O181   2.051       .  S
Fe178       O185   2.084       .  S
Fe178       O189   2.052       .  S
Fe178       O194   2.087       .  S
Fe178       O188   1.950       .  S
Fe179       O197   2.100       .  S
Fe179       O184   2.062       .  S
Fe179       O191   2.066       .  S
Fe179       O180   2.099       .  S
Fe179       O188   1.955       .  S
O180        C187   1.275       .  A
O181        C195   1.266       .  A
O182        C187   1.269       .  A
O183        C186   1.272       .  A
O184        C196   1.270       .  A
O185        C198   1.273       .  A
C186        O191   1.270       .  A
C186       C1146   1.486       .  S
C187        C390   1.473       .  S
O189        C192   1.267       .  A
O190        C192   1.273       .  A
C192        C405   1.484       .  S
O193        C198   1.269       .  A
O194        C196   1.275       .  A
C195        O197   1.274       .  A
C195        C362   1.476   1_554  S
C196        C657   1.493       .  S
C198        C446   1.488       .  S
Fe199       O215   2.053       .  S
Fe199       O205   2.080       .  S
Fe199       O212   2.079       .  S
Fe199       O204   2.043       .  S
Fe199       O210   1.948       .  S
Fe200       O203   2.044       .  S
Fe200       O207   2.092       .  S
Fe200       O211   2.055       .  S
Fe200       O216   2.085       .  S
Fe200       O210   1.951       .  S
Fe201       O219   2.108       .  S
Fe201       O206   2.055       .  S
Fe201       O213   2.061       .  S
Fe201       O202   2.113       .  S
Fe201       O210   1.959       .  S
O202        C209   1.278       .  A
O203        C217   1.267       .  A
O204        C209   1.267       .  A
O205        C208   1.270       .  A
O206        C218   1.269       .  A
O207        C220   1.275       .  A
C208        O213   1.269       .  A
C208       C1021   1.488       .  S
C209        C349   1.479       .  S
O211        C214   1.266       .  A
O212        C214   1.270       .  A
C214        C321   1.488       .  S
O215        C220   1.270       .  A
O216        C218   1.274       .  A
C217        O219   1.277       .  A
C217        C377   1.485       .  S
C218        C601   1.491       .  S
C220        C558   1.493       .  S
Fe221       O237   2.056       .  S
Fe221       O227   2.074       .  S
Fe221       O234   2.079       .  S
Fe221       O226   2.044       .  S
Fe221       O232   1.944       .  S
Fe222       O225   2.044       .  S
Fe222       O229   2.087       .  S
Fe222       O233   2.054       .  S
Fe222       O238   2.088       .  S
Fe222       O232   1.943       .  S
Fe223       O241   2.104       .  S
Fe223       O228   2.062       .  S
Fe223       O235   2.063       .  S
Fe223       O224   2.105       .  S
Fe223       O232   1.948       .  S
O224        C231   1.278       .  A
O225        C239   1.269       .  A
O226        C231   1.268       .  A
O227        C230   1.269       .  A
O228        C240   1.270       .  A
O229        C242   1.273       .  A
C230        O235   1.270       .  A
C230       C1118   1.484       .  S
C231        C306   1.477       .  S
O233        C236   1.270       .  A
O234        C236   1.272       .  A
C236        C418   1.484       .  S
O237        C242   1.268       .  A
O238        C240   1.272       .  A
C239        O241   1.278       .  A
C239        C278   1.481       .  S
C240        C894   1.496       .  S
C242        C586   1.480       .  S
Fe243       O259   2.048       .  S
Fe243       O249   2.076       .  S
Fe243       O256   2.084       .  S
Fe243       O248   2.046       .  S
Fe243       O254   1.941       .  S
Fe244       O247   2.039       .  S
Fe244       O251   2.094       .  S
Fe244       O255   2.050       .  S
Fe244       O260   2.082       .  S
Fe244       O254   1.936       .  S
Fe245       O263   2.105       .  S
Fe245       O250   2.060       .  S
Fe245       O257   2.059       .  S
Fe245       O246   2.102       .  S
Fe245       O254   1.950       .  S
O246        C253   1.277       .  A
O247        C261   1.266       .  A
O248        C253   1.268       .  A
O249        C252   1.270       .  A
O250        C262   1.270       .  A
O251        C264   1.276       .  A
C252        O257   1.270       .  A
C252       C1006   1.490       .  S
C253        C265   1.474       .  S
O255        C258   1.265       .  A
O256        C258   1.271       .  A
C258        C334   1.477       .  S
O259        C264   1.269       .  A
O260        C262   1.273       .  A
C261        O263   1.276       .  A
C261        C293   1.480       .  S
C262        C797   1.490       .  S
C264        C461   1.486       .  S
C265        C266   1.412       .  A
C265        C270   1.402       .  A
C266        C267   1.407       .  A
C266        N271   1.438       .  S
C267        C268   1.401       .  A
C267        H272   1.084       .  S
C268        C273   1.480       .  S
C268        C269   1.410       .  A
C269        C270   1.405       .  A
C269        N274   1.438       .  S
C270        H275   1.084       .  S
N271        H291   1.045       .  S
N271        H292   1.046       .  S
C273        C276   1.402       .  A
C273        C280   1.408       .  A
N274        H289   1.046       .  S
N274        H290   1.045       .  S
C276        C277   1.410       .  A
C276        H281   1.084       .  S
C277        C278   1.414       .  A
C277        N282   1.437       .  S
C278        C279   1.404       .  A
C279        C280   1.402       .  A
C279        H283   1.084       .  S
C280        N284   1.439       .  S
N282        H285   1.046       .  S
N282        H286   1.046       .  S
N284        H287   1.046       .  S
N284        H288   1.045       .  S
C293        C294   1.414       .  A
C293        C298   1.405       .  A
C294        C295   1.410       .  A
C294        N299   1.437       .  S
C295        C296   1.402   1_556  A
C295        H300   1.084   1_556  S
C296        C301   1.480       .  S
C296        C297   1.409       .  A
C297        C298   1.403   1_554  A
C297        N302   1.439       .  S
C298        H303   1.084       .  S
N299        H319   1.045       .  S
N299        H320   1.046       .  S
C301        C304   1.401       .  A
C301        C308   1.410       .  A
N302        H317   1.046       .  S
N302        H318   1.045       .  S
C304        C305   1.408       .  A
C304        H309   1.084       .  S
C305        C306   1.412       .  A
C305        N310   1.437       .  S
C306        C307   1.404       .  A
C307        C308   1.405       .  A
C307        H311   1.084       .  S
C308        N312   1.439       .  S
N310        H313   1.046       .  S
N310        H314   1.045       .  S
N312        H315   1.046       .  S
N312        H316   1.045       .  S
C321        C322   1.416       .  A
C321        C326   1.408       .  A
C322        C323   1.405       .  A
C322        N327   1.438       .  S
C323        C324   1.402       .  A
C323        H328   1.084       .  S
C324        C329   1.484       .  S
C324        C325   1.409       .  A
C325        C326   1.406       .  A
C325        N330   1.438       .  S
C326        H331   1.083       .  S
N327        H347   1.046       .  S
N327        H348   1.045       .  S
C329        C332   1.403       .  A
C329        C336   1.412       .  A
N330        H345   1.046       .  S
N330        H346   1.045       .  S
C332        C333   1.403       .  A
C332        H337   1.084       .  S
C333        C334   1.409       .  A
C333        N338   1.432       .  S
C334        C335   1.404       .  A
C335        C336   1.405       .  A
C335        H339   1.084       .  S
C336        N340   1.438       .  S
N338        H341   1.046       .  S
N338        H342   1.046       .  S
N340        H343   1.046       .  S
N340        H344   1.045       .  S
C349        C350   1.411       .  A
C349        C354   1.405       .  A
C350        C351   1.405       .  A
C350        N355   1.438       .  S
C351        C352   1.402       .  A
C351        H356   1.084       .  S
C352        C357   1.486       .  S
C352        C353   1.410       .  A
C353        C354   1.411       .  A
C353        N358   1.437       .  S
C354        H359   1.084       .  S
N355        H375   1.045       .  S
N355        H376   1.046       .  S
C357        C360   1.404       .  A
C357        C364   1.410       .  A
N358        H373   1.045       .  S
N358        H374   1.046       .  S
C360        C361   1.405       .  A
C360        H365   1.084       .  S
C361        C362   1.408       .  A
C361        N366   1.433       .  S
C362        C363   1.403       .  A
C363        C364   1.409       .  A
C363        H367   1.084       .  S
C364        N368   1.437       .  S
N366        H369   1.046       .  S
N366        H370   1.045       .  S
N368        H371   1.045       .  S
N368        H372   1.046       .  S
C377        C378   1.412       .  A
C377        C382   1.406       .  A
C378        C379   1.403       .  A
C378        N383   1.438       .  S
C379        C380   1.404       .  A
C379        H384   1.084       .  S
C380        C385   1.493       .  S
C380        C381   1.413       .  A
C381        C382   1.413       .  A
C381        N386   1.437       .  S
C382        H387   1.084       .  S
N383        H403   1.045       .  S
N383        H404   1.046       .  S
C385        C388   1.408       .  A
C385        C392   1.413       .  A
N386        H401   1.046       .  S
N386        H402   1.045       .  S
C388        C389   1.411       .  A
C388        H393   1.083       .  S
C389        C390   1.406       .  A
C389        N394   1.436       .  S
C390        C391   1.401       .  A
C391        C392   1.405       .  A
C391        H395   1.084       .  S
C392        N396   1.438       .  S
N394        H397   1.045       .  S
N394        H398   1.046       .  S
N396        H399   1.046       .  S
N396        H400   1.046       .  S
C405        C406   1.415       .  A
C405        C410   1.407       .  A
C406        C407   1.406       .  A
C406        N411   1.438       .  S
C407        C408   1.401       .  A
C407        H412   1.084       .  S
C408        C413   1.479       .  S
C408        C409   1.407       .  A
C409        C410   1.404       .  A
C409        N414   1.438       .  S
C410        H415   1.084       .  S
N411        H431   1.045       .  S
N411        H432   1.046       .  S
C413        C416   1.401       .  A
C413        C420   1.407       .  A
N414        H429   1.046       .  S
N414        H430   1.046       .  S
C416        C417   1.405       .  A
C416        H421   1.084       .  S
C417        C418   1.417       .  A
C417        N422   1.438       .  S
C418        C419   1.406       .  A
C419        C420   1.404       .  A
C419        H423   1.083       .  S
C420        N424   1.438       .  S
N422        H425   1.046       .  S
N422        H426   1.046       .  S
N424        H427   1.046       .  S
N424        H428   1.046       .  S
C433        C434   1.420   1_554  A
C433        C438   1.408       .  A
C434        C435   1.403       .  A
C434        N439   1.438       .  S
C435        C436   1.396   1_556  A
C435        H440   1.084       .  S
C436        C441   1.471       .  S
C436        C437   1.405       .  A
C437        C438   1.403       .  A
C437        N442   1.438       .  S
C438        H443   1.083       .  S
N439        H459   1.046       .  S
N439        H460   1.046       .  S
C441        C444   1.399       .  A
C441        C448   1.404       .  A
N442        H457   1.046       .  S
N442        H458   1.045       .  S
C444        C445   1.402       .  A
C444        H449   1.084       .  S
C445        C446   1.416       .  A
C445        N450   1.432       .  S
C446        C447   1.410       .  A
C447        C448   1.402       .  A
C447        H451   1.083       .  S
C448        N452   1.438       .  S
N450        H453   1.046   1_554  S
N450        H454   1.046       .  S
N452        H455   1.045       .  S
N452        H456   1.045       .  S
C461        C462   1.415       .  A
C461        C466   1.408       .  A
C462        C463   1.407       .  A
C462        N467   1.438       .  S
C463        C464   1.402       .  A
C463        H468   1.084       .  S
C464        C469   1.479       .  S
C464        C465   1.405       .  A
C465        C466   1.403       .  A
C465        N470   1.438       .  S
C466        H471   1.083       .  S
N467        H487   1.046       .  S
N467        H488   1.046       .  S
C469        C472   1.402       .  A
C469        C476   1.407       .  A
N470        H485   1.046       .  S
N470        H486   1.046       .  S
C472        C473   1.408       .  A
C472        H477   1.084       .  S
C473        C474   1.414       .  A
C473        N478   1.438       .  S
C474        C475   1.406       .  A
C475        C476   1.403       .  A
C475        H479   1.084       .  S
C476        N480   1.438       .  S
N478        H481   1.045       .  S
N478        H482   1.046       .  S
N480        H483   1.046       .  S
N480        H484   1.046       .  S
C489        C490   1.413       .  A
C489        C494   1.401       .  A
C490        C491   1.409       .  A
C490        N495   1.438       .  S
C491        C492   1.403       .  A
C491        H496   1.084       .  S
C492        C497   1.482       .  S
C492        C493   1.410       .  A
C493        C494   1.404       .  A
C493        N498   1.438       .  S
C494        H499   1.084       .  S
N495        H515   1.045       .  S
N495        H516   1.046       .  S
C497        C500   1.402       .  A
C497        C504   1.410       .  A
N498        H513   1.046       .  S
N498        H514   1.046       .  S
C500        C501   1.408       .  A
C500        H505   1.084       .  S
C501        C502   1.412       .  A
C501        N506   1.437       .  S
C502        C503   1.405       .  A
C503        C504   1.405       .  A
C503        H507   1.084       .  S
C504        N508   1.438       .  S
N506        H509   1.045       .  S
N506        H510   1.046       .  S
N508        H511   1.046       .  S
N508        H512   1.046       .  S
C517        C518   1.412       .  A
C517        C522   1.406       .  A
C518        C519   1.407       .  A
C518        N523   1.438       .  S
C519        C520   1.402       .  A
C519        H524   1.084       .  S
C520        C525   1.484       .  S
C520        C521   1.409       .  A
C521        C522   1.410       .  A
C521        N526   1.437       .  S
C522        H527   1.084       .  S
N523        H543   1.045       .  S
N523        H544   1.046       .  S
C525        C528   1.402       .  A
C525        C532   1.409       .  A
N526        H541   1.046       .  S
N526        H542   1.045       .  S
C528        C529   1.406       .  A
C528        H533   1.084       .  S
C529        C530   1.410       .  A
C529        N534   1.438       .  S
C530        C531   1.405       .  A
C531        C532   1.410       .  A
C531        H535   1.084       .  S
C532        N536   1.437       .  S
N534        H537   1.045       .  S
N534        H538   1.046       .  S
N536        H539   1.046       .  S
N536        H540   1.046       .  S
C545        C546   1.414       .  A
C545        C550   1.407       .  A
C546        C547   1.406       .  A
C546        N551   1.438       .  S
C547        C548   1.401       .  A
C547        H552   1.084       .  S
C548        C553   1.482       .  S
C548        C549   1.409       .  A
C549        C550   1.405       .  A
C549        N554   1.438       .  S
C550        H555   1.084       .  S
N551        H571   1.046       .  S
N551        H572   1.046       .  S
C553        C556   1.402       .  A
C553        C560   1.407       .  A
N554        H569   1.046       .  S
N554        H570   1.045       .  S
C556        C557   1.408       .  A
C556        H561   1.084       .  S
C557        C558   1.418       .  A
C557        N562   1.438       .  S
C558        C559   1.409       .  A
C559        C560   1.404       .  A
C559        H563   1.083       .  S
C560        N564   1.438       .  S
N562        H565   1.045       .  S
N562        H566   1.046       .  S
N564        H567   1.046       .  S
N564        H568   1.045       .  S
C573        C574   1.416       .  A
C573        C578   1.409       .  A
C574        C575   1.407       .  A
C574        N579   1.438       .  S
C575        C576   1.402       .  A
C575        H580   1.084       .  S
C576        C581   1.483       .  S
C576        C577   1.407       .  A
C577        C578   1.404       .  A
C577        N582   1.438       .  S
C578        H583   1.083       .  S
N579        H599   1.046       .  S
N579        H600   1.046       .  S
C581        C584   1.404       .  A
C581        C588   1.409       .  A
N582        H597   1.046       .  S
N582        H598   1.046       .  S
C584        C585   1.408       .  A
C584        H589   1.084       .  S
C585        C586   1.413       .  A
C585        N590   1.438       .  S
C586        C587   1.405       .  A
C587        C588   1.403       .  A
C587        H591   1.084       .  S
C588        N592   1.438       .  S
N590        H593   1.046       .  S
N590        H594   1.046       .  S
N592        H595   1.046       .  S
N592        H596   1.046       .  S
C601        C602   1.415       .  A
C601        C606   1.408       .  A
C602        C603   1.403       .  A
C602        N607   1.433       .  S
C603        C604   1.402       .  A
C603        H608   1.084       .  S
C604        C609   1.488       .  S
C604        C605   1.411       .  A
C605        C606   1.407       .  A
C605        N610   1.438       .  S
C606        H611   1.083       .  S
N607        H627   1.045       .  S
N607        H628   1.046       .  S
C609        C612   1.405       .  A
C609        C616   1.411       .  A
N610        H625   1.045       .  S
N610        H626   1.046       .  S
C612        C613   1.407       .  A
C612        H617   1.084       .  S
C613        C614   1.414       .  A
C613        N618   1.438       .  S
C614        C615   1.405       .  A
C615        C616   1.405       .  A
C615        H619   1.084       .  S
C616        N620   1.438       .  S
N618        H621   1.046       .  S
N618        H622   1.045       .  S
N620        H623   1.046       .  S
N620        H624   1.045       .  S
C629        C630   1.417       .  A
C629        C634   1.409       .  A
C630        C631   1.400       .  A
C630        N635   1.433       .  S
C631        C632   1.399       .  A
C631        H636   1.084       .  S
C632        C637   1.480   1_565  S
C632        C633   1.408       .  A
C633        C634   1.406       .  A
C633        N638   1.437       .  S
C634        H639   1.083       .  S
N635        H655   1.046       .  S
N635        H656   1.046       .  S
C637        C640   1.403       .  A
C637        C644   1.407       .  A
N638        H653   1.045       .  S
N638        H654   1.046       .  S
C640        C641   1.406       .  A
C640        H645   1.084       .  S
C641        C642   1.412       .  A
C641        N646   1.437       .  S
C642        C643   1.408       .  A
C643        C644   1.403       .  A
C643        H647   1.084       .  S
C644        N648   1.438       .  S
N646        H649   1.046       .  S
N646        H650   1.046       .  S
N648        H651   1.046       .  S
N648        H652   1.045       .  S
C657        C658   1.415       .  A
C657        C662   1.408       .  A
C658        C659   1.406       .  A
C658        N663   1.433       .  S
C659        C660   1.403       .  A
C659        H664   1.084       .  S
C660        C665   1.489       .  S
C660        C661   1.409       .  A
C661        C662   1.407       .  A
C661        N666   1.437       .  S
C662        H667   1.083       .  S
N663        H683   1.045       .  S
N663        H684   1.046       .  S
C665        C668   1.403       .  A
C665        C672   1.409       .  A
N666        H681   1.045       .  S
N666        H682   1.046       .  S
C668        C669   1.408       .  A
C668        H673   1.084       .  S
C669        C670   1.417       .  A
C669        N674   1.438   1_554  S
C670        C671   1.409       .  A
C671        C672   1.408       .  A
C671        H675   1.083       .  S
C672        N676   1.437       .  S
N674        H677   1.046       .  S
N674        H678   1.046       .  S
N676        H679   1.046       .  S
N676        H680   1.046       .  S
C685        C686   1.420   1_554  A
C685        C690   1.410       .  A
C686        C687   1.410       .  A
C686        N691   1.438       .  S
C687        C688   1.401   1_556  A
C687        H692   1.084       .  S
C688        C693   1.480   1_565  S
C688        C689   1.405       .  A
C689        C690   1.404       .  A
C689        N694   1.438       .  S
C690        H695   1.083       .  S
N691        H711   1.046   1_556  S
N691        H712   1.046       .  S
C693        C696   1.399       .  A
C693        C700   1.407   1_554  A
N694        H709   1.045       .  S
N694        H710   1.046   1_565  S
C696        C697   1.407       .  A
C696        H701   1.084       .  S
C697        C698   1.420   1_554  A
C697        N702   1.438       .  S
C698        C699   1.408       .  A
C699        C700   1.406       .  A
C699        H703   1.083       .  S
C700        N704   1.438       .  S
N702        H705   1.046       .  S
N702        H706   1.045       .  S
N704        H707   1.046       .  S
N704        H708   1.046   1_545  S
C713        C714   1.416       .  A
C713        C718   1.405       .  A
C714        C715   1.411       .  A
C714        N719   1.437       .  S
C715        C716   1.401       .  A
C715        H720   1.084       .  S
C716        C721   1.480       .  S
C716        C717   1.408       .  A
C717        C718   1.402       .  A
C717        N722   1.439       .  S
C718        H723   1.084       .  S
N719        H739   1.045       .  S
N719        H740   1.046       .  S
C721        C724   1.402       .  A
C721        C728   1.410       .  A
N722        H737   1.046       .  S
N722        H738   1.045       .  S
C724        C725   1.408       .  A
C724        H729   1.084       .  S
C725        C726   1.411       .  A
C725        N730   1.437       .  S
C726        C727   1.403       .  A
C727        C728   1.404       .  A
C727        H731   1.084       .  S
C728        N732   1.439       .  S
N730        H733   1.041       .  S
N730        H734   1.049       .  S
N732        H735   1.046       .  S
N732        H736   1.045       .  S
C741        C742   1.411       .  A
C741        C746   1.402       .  A
C742        C743   1.408       .  A
C742        N747   1.438       .  S
C743        C744   1.404       .  A
C743        H748   1.084       .  S
C744        C749   1.486       .  S
C744        C745   1.412       .  A
C745        C746   1.405       .  A
C745        N750   1.438       .  S
C746        H751   1.084       .  S
N747        H767   1.045       .  S
N747        H768   1.046       .  S
C749        C752   1.403       .  A
C749        C756   1.413       .  A
N750        H765   1.046       .  S
N750        H766   1.045       .  S
C752        C753   1.400       .  A
C752        H757   1.084       .  S
C753        C754   1.412       .  A
C753        N758   1.433       .  S
C754        C755   1.403       .  A
C755        C756   1.407       .  A
C755        H759   1.084       .  S
C756        N760   1.438       .  S
N758        H761   1.045       .  S
N758        H762   1.046       .  S
N760        H763   1.046       .  S
N760        H764   1.045       .  S
C769        C770   1.417       .  A
C769        C774   1.409       .  A
C770        C771   1.406       .  A
C770        N775   1.432       .  S
C771        C772   1.402       .  A
C771        H776   1.084       .  S
C772        C777   1.488   1_455  S
C772        C773   1.409       .  A
C773        C774   1.406       .  A
C773        N778   1.438       .  S
C774        H779   1.083       .  S
N775        H795   1.046       .  S
N775        H796   1.046       .  S
C777        C780   1.403       .  A
C777        C784   1.410       .  A
N778        H793   1.045       .  S
N778        H794   1.046       .  S
C780        C781   1.405       .  A
C780        H785   1.084       .  S
C781        C782   1.414       .  A
C781        N786   1.438       .  S
C782        C783   1.409       .  A
C783        C784   1.409       .  A
C783        H787   1.084       .  S
C784        N788   1.438       .  S
N786        H789   1.046   1_556  S
N786        H790   1.046   1_556  S
N788        H791   1.046       .  S
N788        H792   1.045       .  S
C797        C798   1.418       .  A
C797        C802   1.409       .  A
C798        C799   1.404       .  A
C798        N803   1.438       .  S
C799        C800   1.400       .  A
C799        H804   1.084       .  S
C800        C805   1.486       .  S
C800        C801   1.410       .  A
C801        C802   1.408       .  A
C801        N806   1.438       .  S
C802        H807   1.084       .  S
N803        H823   1.046       .  S
N803        H824   1.045       .  S
C805        C808   1.401       .  A
C805        C812   1.409       .  A
N806        H821   1.046       .  S
N806        H822   1.045       .  S
C808        C809   1.408       .  A
C808        H813   1.084       .  S
C809        C810   1.421       .  A
C809        N814   1.438       .  S
C810        C811   1.407       .  A
C811        C812   1.403       .  A
C811        H815   1.083       .  S
C812        N816   1.438       .  S
N814        H817   1.046       .  S
N814        H818   1.045       .  S
N816        H819   1.046       .  S
N816        H820   1.046       .  S
C825        C826   1.419       .  A
C825        C830   1.407       .  A
C826        C827   1.412       .  A
C826        N831   1.438       .  S
C827        C828   1.403       .  A
C827        H832   1.084       .  S
C828        C833   1.487       .  S
C828        C829   1.407       .  A
C829        C830   1.405       .  A
C829        N834   1.438       .  S
C830        H835   1.083       .  S
N831        H851   1.046       .  S
N831        H852   1.046       .  S
C833        C836   1.401       .  A
C833        C840   1.407   1_556  A
N834        H849   1.046       .  S
N834        H850   1.046   1_556  S
C836        C837   1.408       .  A
C836        H841   1.084       .  S
C837        C838   1.418       .  A
C837        N842   1.437       .  S
C838        C839   1.412   1_556  A
C839        C840   1.410       .  A
C839        H843   1.083       .  S
C840        N844   1.438       .  S
N842        H845   1.046       .  S
N842        H846   1.046       .  S
N844        H847   1.046       .  S
N844        H848   1.046       .  S
C853        C854   1.418       .  A
C853        C858   1.408       .  A
C854        C855   1.407       .  A
C854        N859   1.438       .  S
C855        C856   1.400       .  A
C855        H860   1.084       .  S
C856        C861   1.483   1_455  S
C856        C857   1.408       .  A
C857        C858   1.407       .  A
C857        N862   1.438       .  S
C858        H863   1.083       .  S
N859        H879   1.046       .  S
N859        H880   1.046       .  S
C861        C864   1.399       .  A
C861        C868   1.408       .  A
N862        H877   1.046       .  S
N862        H878   1.045   1_455  S
C864        C865   1.409       .  A
C864        H869   1.084       .  S
C865        C866   1.422       .  A
C865        N870   1.438       .  S
C866        C867   1.409       .  A
C867        C868   1.407       .  A
C867        H871   1.083       .  S
C868        N872   1.438       .  S
N870        H873   1.045       .  S
N870        H874   1.046       .  S
N872        H875   1.045       .  S
N872        H876   1.046   1_655  S
C881        C882   1.415       .  A
C881        C886   1.409       .  A
C882        C883   1.407       .  A
C882        N887   1.438       .  S
C883        C884   1.404       .  A
C883        H888   1.084       .  S
C884        C889   1.496       .  S
C884        C885   1.413       .  A
C885        C886   1.409       .  A
C885        N890   1.438       .  S
C886        H891   1.084       .  S
N887        H907   1.045       .  S
N887        H908   1.046       .  S
C889        C892   1.404       .  A
C889        C896   1.413       .  A
N890        H905   1.046       .  S
N890        H906   1.045       .  S
C892        C893   1.411       .  A
C892        H897   1.083       .  S
C893        C894   1.420       .  A
C893        N898   1.438       .  S
C894        C895   1.406       .  A
C895        C896   1.405       .  A
C895        H899   1.083       .  S
C896        N900   1.438       .  S
N898        H901   1.046       .  S
N898        H902   1.045       .  S
N900        H903   1.046       .  S
N900        H904   1.046       .  S
C909        C910   1.411       .  A
C909        C914   1.402       .  A
C910        C911   1.404       .  A
C910        N915   1.438       .  S
C911        C912   1.403       .  A
C911        H916   1.084       .  S
C912        C917   1.483       .  S
C912        C913   1.411       .  A
C913        C914   1.406       .  A
C913        N918   1.437       .  S
C914        H919   1.084       .  S
N915        H935   1.046       .  S
N915        H936   1.046       .  S
C917        C920   1.405       .  A
C917        C924   1.411       .  A
N918        H933   1.046       .  S
N918        H934   1.045       .  S
C920        C921   1.404       .  A
C920        H925   1.084       .  S
C921        C922   1.407       .  A
C921        N926   1.438       .  S
C922        C923   1.403       .  A
C923        C924   1.406       .  A
C923        H927   1.084       .  S
C924        N928   1.437       .  S
N926        H929   1.046       .  S
N926        H930   1.046       .  S
N928        H931   1.046       .  S
N928        H932   1.045       .  S
C937        C938   1.412       .  A
C937        C942   1.404       .  A
C938        C939   1.410       .  A
C938        N943   1.438       .  S
C939        C940   1.403       .  A
C939        H944   1.084       .  S
C940        C945   1.488       .  S
C940        C941   1.411       .  A
C941        C942   1.408       .  A
C941        N946   1.438       .  S
C942        H947   1.084       .  S
N943        H963   1.045       .  S
N943        H964   1.045       .  S
C945        C948   1.404       .  A
C945        C952   1.410       .  A
N946        H961   1.046       .  S
N946        H962   1.046       .  S
C948        C949   1.411       .  A
C948        H953   1.083       .  S
C949        C950   1.413       .  A
C949        N954   1.437       .  S
C950        C951   1.404       .  A
C951        C952   1.406       .  A
C951        H955   1.084       .  S
C952        N956   1.438       .  S
N954        H957   1.046       .  S
N954        H958   1.045   1_554  S
N956        H959   1.046       .  S
N956        H960   1.046       .  S
C965        C966   1.419       .  A
C965        C970   1.409       .  A
C966        C967   1.407       .  A
C966        N971   1.438       .  S
C967        C968   1.402       .  A
C967        H972   1.084       .  S
C968        C973   1.484       .  S
C968        C969   1.407       .  A
C969        C970   1.404       .  A
C969        N974   1.438       .  S
C970        H975   1.083       .  S
N971        H991   1.046       .  S
N971        H992   1.046       .  S
C973        C976   1.403       .  A
C973        C980   1.409       .  A
N974        H989   1.046       .  S
N974        H990   1.046       .  S
C976        C977   1.407       .  A
C976        H981   1.084       .  S
C977        C978   1.415       .  A
C977        N982   1.438       .  S
C978        C979   1.405       .  A
C979        C980   1.404       .  A
C979        H983   1.084       .  S
C980        N984   1.438       .  S
N982        H985   1.046       .  S
N982        H986   1.046       .  S
N984        H987   1.046       .  S
N984        H988   1.046       .  S
C993        C994   1.421       .  A
C993        C998   1.409       .  A
C994        C995   1.404       .  A
C994        N999   1.438       .  S
C995        C996   1.397       .  A
C995       H1000   1.084       .  S
C996       C1001   1.473   1_565  S
C996        C997   1.405       .  A
C997        C998   1.402       .  A
C997       N1002   1.438       .  S
C998       H1003   1.083       .  S
N999       H1019   1.046       .  S
N999       H1020   1.046       .  S
C1001      C1004   1.396       .  A
C1001      C1008   1.405       .  A
N1002      H1017   1.045       .  S
N1002      H1018   1.046   1_565  S
C1004      C1005   1.404       .  A
C1004      H1009   1.084       .  S
C1005      C1006   1.422       .  A
C1005      N1010   1.438       .  S
C1006      C1007   1.409       .  A
C1007      C1008   1.404       .  A
C1007      H1011   1.083       .  S
C1008      N1012   1.438       .  S
N1010      H1013   1.046       .  S
N1010      H1014   1.045       .  S
N1012      H1015   1.045       .  S
N1012      H1016   1.046   1_545  S
C1021      C1022   1.419       .  A
C1021      C1026   1.406       .  A
C1022      C1023   1.407       .  A
C1022      N1027   1.438       .  S
C1023      C1024   1.400       .  A
C1023      H1028   1.084       .  S
C1024      C1029   1.482   1_655  S
C1024      C1025   1.408       .  A
C1025      C1026   1.406       .  A
C1025      N1030   1.438       .  S
C1026      H1031   1.084       .  S
N1027      H1047   1.045       .  S
N1027      H1048   1.046       .  S
C1029      C1032   1.399       .  A
C1029      C1036   1.407       .  A
N1030      H1045   1.045       .  S
N1030      H1046   1.046   1_655  S
C1032      C1033   1.407       .  A
C1032      H1037   1.084       .  S
C1033      C1034   1.421       .  A
C1033      N1038   1.438       .  S
C1034      C1035   1.410       .  A
C1035      C1036   1.406       .  A
C1035      H1039   1.083       .  S
C1036      N1040   1.438       .  S
N1038      H1041   1.046       .  S
N1038      H1042   1.046       .  S
N1040      H1043   1.046       .  S
N1040      H1044   1.046   1_455  S
C1049      C1050   1.412       .  A
C1049      C1054   1.405       .  A
C1050      C1051   1.402       .  A
C1050      N1055   1.433       .  S
C1051      C1052   1.401       .  A
C1051      H1056   1.084       .  S
C1052      C1057   1.480       .  S
C1052      C1053   1.410       .  A
C1053      C1054   1.403       .  A
C1053      N1058   1.438       .  S
C1054      H1059   1.083       .  S
N1055      H1075   1.046       .  S
N1055      H1076   1.046       .  S
C1057      C1060   1.402       .  A
C1057      C1064   1.406       .  A
N1058      H1073   1.046       .  S
N1058      H1074   1.045       .  S
C1060      C1061   1.404       .  A
C1060      H1065   1.084       .  S
C1061      C1062   1.416       .  A
C1061      N1066   1.438       .  S
C1062      C1063   1.410       .  A
C1063      C1064   1.403       .  A
C1063      H1067   1.083       .  S
C1064      N1068   1.438       .  S
N1066      H1069   1.046       .  S
N1066      H1070   1.046       .  S
N1068      H1071   1.046       .  S
N1068      H1072   1.045       .  S
C1077      C1078   1.419       .  A
C1077      C1082   1.408       .  A
C1078      C1079   1.405       .  A
C1078      N1083   1.433       .  S
C1079      C1080   1.400       .  A
C1079      H1084   1.084       .  S
C1080      C1085   1.488       .  S
C1080      C1081   1.410       .  A
C1081      C1082   1.408       .  A
C1081      N1086   1.438       .  S
C1082      H1087   1.083       .  S
N1083      H1103   1.046       .  S
N1083      H1104   1.046       .  S
C1085      C1088   1.401       .  A
C1085      C1092   1.410       .  A
N1086      H1101   1.046       .  S
N1086      H1102   1.046       .  S
C1088      C1089   1.403       .  A
C1088      H1093   1.084       .  S
C1089      C1090   1.415       .  A
C1089      N1094   1.432       .  S
C1090      C1091   1.409       .  A
C1091      C1092   1.411       .  A
C1091      H1095   1.083       .  S
C1092      N1096   1.437       .  S
N1094      H1097   1.046       .  S
N1094      H1098   1.045       .  S
N1096      H1099   1.046       .  S
N1096      H1100   1.046       .  S
C1105      C1106   1.415       .  A
C1105      C1110   1.409       .  A
C1106      C1107   1.402       .  A
C1106      N1111   1.432       .  S
C1107      C1108   1.400       .  A
C1107      H1112   1.084       .  S
C1108      C1113   1.478   1_565  S
C1108      C1109   1.407       .  A
C1109      C1110   1.404       .  A
C1109      N1114   1.438       .  S
C1110      H1115   1.083       .  S
N1111      H1131   1.046       .  S
N1111      H1132   1.046       .  S
C1113      C1116   1.399       .  A
C1113      C1120   1.408       .  A
N1114      H1129   1.046       .  S
N1114      H1130   1.046   1_565  S
C1116      C1117   1.406       .  A
C1116      H1121   1.084       .  S
C1117      C1118   1.419       .  A
C1117      N1122   1.438       .  S
C1118      C1119   1.405       .  A
C1119      C1120   1.404       .  A
C1119      H1123   1.084       .  S
C1120      N1124   1.438       .  S
N1122      H1125   1.046       .  S
N1122      H1126   1.045       .  S
N1124      H1127   1.045       .  S
N1124      H1128   1.046   1_545  S
C1133      C1134   1.416       .  A
C1133      C1138   1.410       .  A
C1134      C1135   1.402       .  A
C1134      N1139   1.433       .  S
C1135      C1136   1.402       .  A
C1135      H1140   1.084       .  S
C1136      C1141   1.487   1_455  S
C1136      C1137   1.409       .  A
C1137      C1138   1.408       .  A
C1137      N1142   1.437       .  S
C1138      H1143   1.083       .  S
N1139      H1159   1.046       .  S
N1139      H1160   1.046       .  S
C1141      C1144   1.405       .  A
C1141      C1148   1.409       .  A
N1142      H1157   1.046       .  S
N1142      H1158   1.045       .  S
C1144      C1145   1.409       .  A
C1144      H1149   1.084       .  S
C1145      C1146   1.414       .  A
C1145      N1150   1.438       .  S
C1146      C1147   1.406       .  A
C1147      C1148   1.404       .  A
C1147      H1151   1.084       .  S
C1148      N1152   1.438       .  S
N1150      H1153   1.045       .  S
N1150      H1154   1.046       .  S
N1152      H1155   1.045       .  S
N1152      H1156   1.046       .  S
C1161      C1162   1.411       .  A
C1161      C1166   1.406       .  A
C1162      C1163   1.407       .  A
C1162      N1167   1.438       .  S
C1163      C1164   1.402       .  A
C1163      H1168   1.084       .  S
C1164      C1169   1.484       .  S
C1164      C1165   1.409       .  A
C1165      C1166   1.412       .  A
C1165      N1170   1.437       .  S
C1166      H1171   1.084       .  S
N1167      H1187   1.046       .  S
N1167      H1188   1.045       .  S
C1169      C1172   1.401       .  A
C1169      C1176   1.410   1_556  A
N1170      H1185   1.045       .  S
N1170      H1186   1.046       .  S
C1172      C1173   1.403   1_556  A
C1172      H1177   1.084       .  S
C1173      C1174   1.411       .  A
C1173      N1178   1.438       .  S
C1174      C1175   1.408       .  A
C1175      C1176   1.413       .  A
C1175      H1179   1.084       .  S
C1176      N1180   1.437   1_554  S
N1178      H1181   1.045       .  S
N1178      H1182   1.046       .  S
N1180      H1183   1.046   1_556  S
N1180      H1184   1.045       .  S
C1189      C1190   1.416       .  A
C1189      C1194   1.406       .  A
C1190      C1191   1.412       .  A
C1190      N1195   1.438       .  S
C1191      C1192   1.403       .  A
C1191      H1196   1.084       .  S
C1192      C1197   1.489       .  S
C1192      C1193   1.410       .  A
C1193      C1194   1.407       .  A
C1193      N1198   1.438       .  S
C1194      H1199   1.084       .  S
N1195      H1215   1.046       .  S
N1195      H1216   1.046       .  S
C1197      C1200   1.404       .  A
C1197      C1204   1.411       .  A
N1198      H1213   1.046       .  S
N1198      H1214   1.046       .  S
C1200      C1201   1.412       .  A
C1200      H1205   1.084       .  S
C1201      C1202   1.413       .  A
C1201      N1206   1.438       .  S
C1202      C1203   1.402       .  A
C1203      C1204   1.407       .  A
C1203      H1207   1.084       .  S
C1204      N1208   1.438       .  S
N1206      H1209   1.046       .  S
N1206      H1210   1.045       .  S
N1208      H1211   1.046       .  S
N1208      H1212   1.045       .  S
C1217      C1218   1.423       .  A
C1217      C1222   1.409       .  A
C1218      C1219   1.407       .  A
C1218      N1223   1.438       .  S
C1219      C1220   1.398       .  A
C1219      H1224   1.084       .  S
C1220      C1225   1.481       .  S
C1220      C1221   1.406       .  A
C1221      C1222   1.406       .  A
C1221      N1226   1.438       .  S
C1222      H1227   1.083       .  S
N1223      H1243   1.045       .  S
N1223      H1244   1.046       .  S
C1225      C1228   1.400       .  A
C1225      C1232   1.406       .  A
N1226      H1241   1.045       .  S
N1226      H1242   1.046       .  S
C1228      C1229   1.406       .  A
C1228      H1233   1.084       .  S
C1229      C1230   1.418       .  A
C1229      N1234   1.438       .  S
C1230      C1231   1.410       .  A
C1231      C1232   1.407       .  A
C1231      H1235   1.083       .  S
C1232      N1236   1.438       .  S
N1234      H1237   1.046       .  S
N1234      H1238   1.046       .  S
N1236      H1239   1.045       .  S
N1236      H1240   1.046       .  S
C1245      C1246   1.414       .  A
C1245      C1250   1.404       .  A
C1246      C1247   1.406       .  A
C1246      N1251   1.433       .  S
C1247      C1248   1.402       .  A
C1247      H1252   1.084       .  S
C1248      C1253   1.481       .  S
C1248      C1249   1.408       .  A
C1249      C1250   1.404       .  A
C1249      N1254   1.438       .  S
C1250      H1255   1.083       .  S
N1251      H1271   1.045       .  S
N1251      H1272   1.046       .  S
C1253      C1256   1.403       .  A
C1253      C1260   1.405       .  A
N1254      H1269   1.045       .  S
N1254      H1270   1.046       .  S
C1256      C1257   1.409       .  A
C1256      H1261   1.084       .  S
C1257      C1258   1.415       .  A
C1257      N1262   1.437       .  S
C1258      C1259   1.411       .  A
C1259      C1260   1.404       .  A
C1259      H1263   1.083       .  S
C1260      N1264   1.438       .  S
N1262      H1265   1.046       .  S
N1262      H1266   1.045       .  S
N1264      H1267   1.045       .  S
N1264      H1268   1.046       .  S
