geometry optimzed in LAMMPS
_audit_creation_date              2020-12-01 
_audit_creation_method            'lammps2cif' 
_symmetry_space_group_name_H-M    'P1' 
_symmetry_Int_Tables_number       1 
_symmetry_cell_setting            triclinic 
loop_ 
_symmetry_equiv_pos_as_xyz 
  x,y,z 
_cell_length_a                    35.3830163 
_cell_length_b                    35.662782005984475 
_cell_length_c                    28.269417848482746 
_cell_angle_alpha                 89.94557004529013 
_cell_angle_beta                  90.24453526757095 
_cell_angle_gamma                 89.74578930155342 
loop_ 
_atom_site_label 
_atom_site_type_symbol 
_atom_site_fract_x 
_atom_site_fract_y 
_atom_site_fract_z 
_atom_site_charge 
O1          O  0.69320235  0.81453944  0.37014441    -0.85100
O2          O  0.74988814  0.81559836  0.30569650    -0.82100
C3          C  0.77633953  0.82757920  0.28051406     0.98400
O4          O  0.79877746  0.85218837  0.29657640    -0.82100
O5          O  0.75387755  0.91575265  0.30415249    -0.84800
C6          C  0.73209470  0.94056745  0.32015921     1.02900
O7          O  0.71947712  0.93769182  0.36194549    -0.77600
O8          O  0.67756908  0.87373561  0.36089468    -0.77700
C9          C  0.66963269  0.83957481  0.35668916     1.02900
O10         O  0.75157395  0.81467866  0.44422818    -0.85100
O11         O  0.80788935  0.81062223  0.37963954    -0.82100
C12         C  0.83279201  0.83414224  0.39283604     0.98400
O13         O  0.82657129  0.86872963  0.38995449    -0.82200
O14         O  0.78861245  0.93504573  0.39354902    -0.84800
C15         C  0.77584509  0.93722892  0.43546984     1.02900
O16         O  0.75249615  0.91331075  0.44978951    -0.77600
O17         O  0.70387860  0.85295322  0.45358133    -0.77700
C18         C  0.72535699  0.82732063  0.46939661     1.02800
Cr19       Cr  0.75070926  0.81735976  0.37500168     1.93700
Cr20       Cr  0.78920448  0.89102173  0.34791849     1.93200
Cr21       Cr  0.71600359  0.89239841  0.40451903     1.39100
O22         O  0.75198386  0.86675526  0.37570461    -1.22800
O23         O  0.70422569  0.70799550  0.91730648    -0.85100
O24         O  0.78252221  0.70918479  0.93158267    -0.82100
C25         C  0.78224118  0.68944813  0.96841846     0.98400
O26         O  0.77694890  0.65458162  0.96467141    -0.82100
O27         O  0.74924971  0.58821913  0.92774477    -0.84800
C28         C  0.71382571  0.58439019  0.92953891     1.02900
O29         O  0.69169974  0.60603664  0.90722452    -0.77600
O30         O  0.67058345  0.67400215  0.86823364    -0.77700
C31         C  0.67249562  0.69525645  0.90399754     1.02900
O32         O  0.71757364  0.71306021  0.81786394    -0.85100
O33         O  0.79454183  0.70161703  0.83332999    -0.82100
C34         C  0.82458777  0.68468775  0.84574751     0.98400
O35         O  0.82411291  0.66207277  0.88048783    -0.82200
O36         O  0.79244760  0.59742977  0.84432717    -0.84800
C37         C  0.76712325  0.57921498  0.82266926     1.02900
O38         O  0.73294326  0.58867484  0.82603312    -0.77600
O39         O  0.71715659  0.65743067  0.78671119    -0.77700
C40         C  0.71480205  0.69249295  0.78189533     1.02800
Cr41       Cr  0.74941674  0.70420295  0.87513983     1.93700
Cr42       Cr  0.78288390  0.62789945  0.90247054     1.93200
Cr43       Cr  0.70628393  0.63347114  0.84899126     1.39100
O44         O  0.74622054  0.65465355  0.87565781    -1.22800
O45         O  0.20162823  0.79704626  0.68576735    -0.85100
O46         O  0.19789805  0.72112876  0.66737705    -0.82100
C47         C  0.18403203  0.69034971  0.65377588     0.98400
O48         O  0.16032376  0.68935024  0.62016569    -0.82100
O49         O  0.09422783  0.71463677  0.66141221    -0.84800
C50         C  0.07272869  0.73746092  0.68257111     1.02900
O51         O  0.07727521  0.77235682  0.67772015    -0.77600
O52         O  0.14570282  0.79346209  0.71732027    -0.77700
C53         C  0.18114949  0.79578868  0.72208712     1.02900
O54         O  0.19415395  0.81253629  0.58645873    -0.85100
O55         O  0.20204631  0.73611100  0.56867261    -0.82100
C56         C  0.18023170  0.73346418  0.53354428     0.98400
O57         O  0.14504939  0.73671943  0.53904004    -0.82200
O58         O  0.07763069  0.75720273  0.57871400    -0.84800
C59         C  0.07271020  0.79195990  0.57294976     1.02900
O60         O  0.09220876  0.81561001  0.59563637    -0.77600
O61         O  0.15771291  0.84231108  0.63667892    -0.77700
C62         C  0.17912455  0.84268863  0.60092788     1.02800
Cr63       Cr  0.19524082  0.76674292  0.62707533     1.93700
Cr64       Cr  0.12127921  0.72744000  0.60185246     1.93200
Cr65       Cr  0.12027390  0.80311478  0.65499347     1.39100
O66         O  0.14524240  0.76569729  0.62797245    -1.22800
O67         O  0.29195126  0.78386120  0.07846378    -0.85100
O68         O  0.30304013  0.70781744  0.09499849    -0.82100
C69         C  0.32068854  0.67830043  0.10688331     0.98400
O70         O  0.34458486  0.67894595  0.14038201    -0.82100
O71         O  0.40770749  0.70905645  0.09810314    -0.84800
C72         C  0.42589269  0.73369557  0.07556786     1.02900
O73         O  0.41780029  0.76799722  0.08014489    -0.77600
O74         O  0.34692270  0.78587866  0.04438603    -0.77700
C75         C  0.31126719  0.78681746  0.04138460     1.02900
O76         O  0.30019489  0.79857546  0.17676864    -0.85100
O77         O  0.30015739  0.72155623  0.19380975    -0.82100
C78         C  0.32248068  0.72188334  0.22853175     0.98400
O79         O  0.35719575  0.72747199  0.22193623    -0.82200
O80         O  0.42239364  0.75206327  0.18053782    -0.84800
C81         C  0.42562383  0.78705813  0.18497880     1.02900
O82         O  0.40354383  0.80937700  0.16346213    -0.77600
O83         O  0.33411308  0.83168837  0.12690538    -0.77700
C84         C  0.31160256  0.82991230  0.16149757     1.02800
Cr85       Cr  0.30274445  0.75317299  0.13586476     1.93700
Cr86       Cr  0.38055653  0.71970020  0.15837655     1.93200
Cr87       Cr  0.37378870  0.79559054  0.10576179     1.39100
O88         O  0.35276527  0.75616152  0.13318302    -1.22800
O89         O  0.29381466  0.20534420  0.32609939    -0.85100
O90         O  0.21652276  0.21344472  0.31047267    -0.82100
C91         C  0.21415845  0.19279873  0.27439434     0.98400
O92         O  0.21585771  0.15760689  0.27959885    -0.82100
O93         O  0.23455351  0.08905861  0.31922216    -0.84800
C94         C  0.26904758  0.08162307  0.31311996     1.02900
O95         O  0.29425738  0.10149133  0.33261856    -0.77600
O96         O  0.32421784  0.16597958  0.37256059    -0.77700
C97         C  0.32428800  0.18940306  0.33886979     1.02900
O98         O  0.28129975  0.21054446  0.42511411    -0.85100
O99         O  0.20387897  0.20716097  0.41088288    -0.82100
C100        C  0.17253273  0.19287903  0.39917270     0.98400
O101        O  0.17054639  0.17307593  0.36220258    -0.82200
O102        O  0.19467117  0.10615025  0.40265729    -0.84800
C103        C  0.21817798  0.08461099  0.42310735     1.02900
O104        O  0.25314741  0.08836811  0.41628383    -0.77600
O105        O  0.27786827  0.15455814  0.45548645    -0.77700
C106        C  0.28245712  0.18939590  0.46077478     1.02800
Cr107      Cr  0.24858080  0.20549237  0.36800458     1.93700
Cr108      Cr  0.20689877  0.13339216  0.34260972     1.93200
Cr109      Cr  0.28455435  0.12982582  0.39240405     1.39100
O110        O  0.24683135  0.15586078  0.36743556    -1.22800
O111        O  0.31327489  0.31237211  0.86634380    -0.85100
O112        O  0.25686628  0.31331582  0.93125302    -0.82100
C113        C  0.23125018  0.32569821  0.95767810     0.98400
O114        O  0.21064530  0.35289749  0.94388391    -0.82100
O115        O  0.25781958  0.41470758  0.93910064    -0.84800
C116        C  0.28111784  0.43858456  0.92453308     1.02900
O117        O  0.29310629  0.43654431  0.88236126    -0.77600
O118        O  0.33112546  0.37026229  0.88051983    -0.77700
C119        C  0.33685941  0.33561470  0.88351652     1.02900
O120        O  0.25468675  0.31897218  0.79269143    -0.85100
O121        O  0.19859028  0.31479896  0.85766346    -0.82100
C122        C  0.17433121  0.33997136  0.84713705     0.98400
O123        O  0.18207436  0.37407582  0.85191412    -0.82200
O124        O  0.22342976  0.43825599  0.85092405    -0.84800
C125        C  0.23666973  0.44166948  0.80936649     1.02900
O126        O  0.25931641  0.41754744  0.79333877    -0.77600
O127        O  0.30465451  0.35420640  0.78582842    -0.77700
C128        C  0.28153781  0.33094917  0.76822468     1.02800
Cr129      Cr  0.25596879  0.31844580  0.86205842     1.93700
Cr130      Cr  0.22117046  0.39299447  0.89438558     1.93200
Cr131      Cr  0.29434010  0.39260019  0.83735033     1.39100
O132        O  0.25702103  0.36788968  0.86462623    -1.22800
O133        O  0.79984843  0.22582385  0.68777105    -0.85100
O134        O  0.80162170  0.30293398  0.67054484    -0.82100
C135        C  0.81431227  0.33403824  0.65593718     0.98400
O136        O  0.83749354  0.33515226  0.62196784    -0.82100
O137        O  0.90596768  0.31303976  0.66023055    -0.84800
C138        C  0.92660348  0.29090878  0.68410729     1.02900
O139        O  0.92257749  0.25588319  0.68113676    -0.77600
O140        O  0.85562254  0.23262688  0.71910994    -0.77700
C141        C  0.82079434  0.22668184  0.72369689     1.02900
O142        O  0.80621713  0.21179343  0.58958853    -0.85100
O143        O  0.79568794  0.28824181  0.57285966    -0.82100
C144        C  0.81547743  0.29020379  0.53621676     0.98400
O145        O  0.85105961  0.28840778  0.54006650    -0.82200
O146        O  0.92109308  0.26983584  0.57852121    -0.84800
C147        C  0.92911983  0.23535176  0.57627980     1.02900
O148        O  0.91017069  0.21160495  0.59923967    -0.77600
O149        O  0.84527771  0.18300520  0.63826236    -0.77700
C150        C  0.82242752  0.18200706  0.60359237     1.02800
Cr151      Cr  0.80476136  0.25735786  0.63015737     1.93700
Cr152      Cr  0.87700769  0.29852092  0.60215691     1.93200
Cr153      Cr  0.88117465  0.22359064  0.65741219     1.39100
O154        O  0.85481019  0.25987815  0.62982292    -1.22800
O155        O  0.70422452  0.23023059  0.06870121    -0.85100
O156        O  0.69526973  0.30708980  0.08102715    -0.82100
C157        C  0.67898847  0.33723569  0.09334640     0.98400
O158        O  0.65964656  0.33770150  0.13080086    -0.82100
O159        O  0.59438363  0.30932418  0.09056083    -0.84800
C160        C  0.57464939  0.28477374  0.06964252     1.02900
O161        O  0.57975914  0.25045734  0.07850861    -0.77600
O162        O  0.64745907  0.22977762  0.03906838    -0.77700
C163        C  0.68271889  0.22742288  0.03335145     1.02900
O164        O  0.70111466  0.21863527  0.16786213    -0.85100
O165        O  0.70390863  0.29580526  0.18097216    -0.82100
C166        C  0.68406244  0.29545446  0.21779911     0.98400
O167        O  0.64854245  0.29222053  0.21392463    -0.82200
O168        O  0.58000987  0.26923329  0.17526956    -0.84800
C169        C  0.57531691  0.23460960  0.18209045     1.02900
O170        O  0.59699266  0.21092427  0.16272882    -0.77600
O171        O  0.66341262  0.18546317  0.12234761    -0.77700
C172        C  0.68693981  0.18741666  0.15606781     1.02800
Cr173      Cr  0.69759439  0.26292758  0.12478140     1.93700
Cr174      Cr  0.62255748  0.29935049  0.15107282     1.93200
Cr175      Cr  0.62391220  0.22208288  0.10245296     1.39100
O176        O  0.64766932  0.26124884  0.12638484    -1.22800
C177        C  0.78914662  0.24836510  0.84741167    -0.01700
C178        C  0.76205440  0.22011892  0.85535338     0.06900
C179        C  0.75606549  0.19261108  0.82082701    -0.07700
C180        C  0.77635090  0.19321516  0.77842559     0.04300
C181        C  0.80340299  0.22155728  0.77044516    -0.14900
C182        C  0.80990423  0.24859751  0.80540266    -0.08300
C183        C  0.74054748  0.21836084  0.90013036     0.05200
C184        C  0.70191370  0.22747968  0.90032356    -0.09400
C185        C  0.68168558  0.22928038  0.94292140     0.00200
C186        C  0.70032653  0.22144233  0.98624105     0.00100
C187        C  0.73861727  0.21040223  0.98517601    -0.12900
C188        C  0.75869542  0.20895407  0.94286523     0.00600
C189        C  0.64260647  0.24101952  0.94117216     0.39900
C190        C  0.79816372  0.19839122  0.94415718     0.36500
C191        C  0.79496091  0.27829067  0.88096993     0.36200
C192        C  0.76921739  0.16430004  0.74378002     0.37000
N193        N  0.61128793  0.25048769  0.93980737    -0.43800
N194        N  0.82982642  0.19012935  0.94500864    -0.44300
N195        N  0.76360588  0.14118118  0.71594603    -0.41600
N196        N  0.79962729  0.30241168  0.90767260    -0.43100
H197        H  0.82987769  0.27099425  0.79888838     0.13100
H198        H  0.73550820  0.17070894  0.82704515     0.09600
H199        H  0.68786543  0.23450409  0.86719429     0.10700
H200        H  0.75345767  0.20366198  0.01784377     0.16500
C201        C  0.70331241  0.32089558  0.34653084    -0.01700
C202        C  0.74016014  0.30624321  0.35365379     0.06900
C203        C  0.75836915  0.28870279  0.31571860    -0.07700
C204        C  0.74089909  0.28558430  0.27145761     0.04300
C205        C  0.70346401  0.29914888  0.26448181    -0.14900
C206        C  0.68512102  0.31675050  0.30248610    -0.08300
C207        C  0.75909472  0.30561871  0.40105393     0.05200
C208        C  0.74021227  0.28882016  0.43891731    -0.09400
C209        C  0.75771225  0.28427740  0.48299785     0.00200
C210        C  0.79589601  0.29543258  0.48978519     0.00100
C211        C  0.81477148  0.31258728  0.45192433    -0.12900
C212        C  0.79656413  0.31825326  0.40813915     0.00600
C213        C  0.73575663  0.26673618  0.51986746     0.39900
C214        C  0.81650845  0.33804760  0.37141739     0.36500
C215        C  0.68405159  0.34124631  0.38344302     0.36200
C216        C  0.76179687  0.26652997  0.23472994     0.37000
N217        N  0.71805356  0.25275792  0.54930362    -0.43800
N218        N  0.83235205  0.35407670  0.34198760    -0.44300
N219        N  0.77880316  0.25126202  0.20558348    -0.41600
N220        N  0.66872981  0.35771171  0.41300664    -0.43100
H221        H  0.65684213  0.32791588  0.29755090     0.13100
H222        H  0.78621760  0.27655394  0.32098739     0.09600
H223        H  0.71175607  0.27839768  0.43374144     0.10700
H224        H  0.84354194  0.32219946  0.45674149     0.16500
C225        C  0.43764710  0.30385361  0.90311510    -0.01700
C226        C  0.44310318  0.31299344  0.95136431     0.06900
C227        C  0.41265376  0.32742595  0.97727303    -0.07700
C228        C  0.37735052  0.33310422  0.95599424     0.04300
C229        C  0.37165637  0.32346689  0.90806499    -0.14900
C230        C  0.40190603  0.30871304  0.88201897    -0.08300
C231        C  0.47963883  0.30662212  0.97655958     0.05200
C232        C  0.49799686  0.33689187  0.99865894    -0.09400
C233        C  0.52986677  0.33120848  0.02778027     0.00200
C234        C  0.54385165  0.29444540  0.03532440     0.00100
C235        C  0.52612035  0.26456456  0.01130882    -0.12900
C236        C  0.49425755  0.27020235  0.98289485     0.00600
C237        C  0.54659542  0.36338623  0.05046842     0.39900
C238        C  0.47568139  0.23772944  0.96319259     0.36500
C239        C  0.46866563  0.29121358  0.87409559     0.36200
C240        C  0.34748219  0.34969296  0.98384248     0.37000
N241        N  0.55996117  0.38923060  0.06863516    -0.43800
N242        N  0.46083970  0.21171324  0.94738574    -0.44300
N243        N  0.32365172  0.36319706  0.00607016    -0.41600
N244        N  0.49356367  0.28109088  0.85088903    -0.43100
H245        H  0.39809777  0.30275076  0.84471475     0.13100
H246        H  0.41655766  0.33445834  0.01426720     0.09600
H247        H  0.48671168  0.36505752  0.99407035     0.10700
H248        H  0.53631459  0.23601120  0.01590684     0.16500
C249        C  0.09674574  0.29995658  0.76967654    -0.01700
C250        C  0.06509052  0.32118683  0.78429553     0.06900
C251        C  0.06885072  0.34586696  0.82243183    -0.07700
C252        C  0.10387288  0.35091800  0.84471464     0.04300
C253        C  0.13601611  0.33052224  0.82934344    -0.14900
C254        C  0.13178205  0.30439419  0.79261057    -0.08300
C255        C  0.02763092  0.31766000  0.76072775     0.05200
C256        C  0.00001890  0.29523696  0.78183018    -0.09400
C257        C  0.96543596  0.28870859  0.75902182     0.00200
C258        C  0.95797341  0.30483492  0.71417598     0.00100
C259        C  0.98459568  0.32945548  0.69465895    -0.12900
C260        C  0.01929166  0.33591351  0.71758268     0.00600
C261        C  0.93811317  0.26511134  0.78227891     0.39900
C262        C  0.04630238  0.36066986  0.69581293     0.36500
C263        C  0.09398959  0.27409035  0.73059345     0.36200
C264        C  0.10603129  0.37732651  0.88335171     0.37000
N265        N  0.91625752  0.24633728  0.80118242    -0.43800
N266        N  0.06796567  0.38059828  0.67851473    -0.44300
N267        N  0.10779935  0.39856211  0.91420542    -0.41600
N268        N  0.09170562  0.25348350  0.69912417    -0.43100
H269        H  0.15620061  0.28876142  0.78034304     0.13100
H270        H  0.04444737  0.36177624  0.83422994     0.09600
H271        H  0.00592871  0.28200279  0.81559131     0.10700
H272        H  0.97924868  0.34192813  0.66030764     0.16500
C273        C  0.49029037  0.24565687  0.26068090    -0.01700
C274        C  0.47092839  0.21184866  0.25343913     0.06900
C275        C  0.48790796  0.18326697  0.22674448    -0.07700
C276        C  0.52324424  0.18872248  0.20533671     0.04300
C277        C  0.54204630  0.22342755  0.21078061    -0.14900
C278        C  0.52550269  0.25105721  0.23981379    -0.08300
C279        C  0.43331703  0.20583838  0.27476262     0.05200
C280        C  0.40062620  0.21635823  0.24967507    -0.09400
C281        C  0.36464748  0.21238517  0.26987143     0.00200
C282        C  0.36120543  0.19766805  0.31617006     0.00100
C283        C  0.39437491  0.18784669  0.34116895    -0.12900
C284        C  0.43004743  0.19175901  0.32094755     0.00600
C285        C  0.33200454  0.22257914  0.24180727     0.39900
C286        C  0.46301570  0.18116168  0.34823383     0.36500
C287        C  0.47403876  0.27562182  0.28840774     0.36200
C288        C  0.53844284  0.15896659  0.17644522     0.37000
N289        N  0.30584520  0.23078731  0.21930526    -0.43800
N290        N  0.48945466  0.17267475  0.37004572    -0.44300
N291        N  0.55056592  0.13502782  0.15334363    -0.41600
N292        N  0.46095172  0.29964631  0.31051816    -0.43100
H293        H  0.53952876  0.27774507  0.24502219     0.13100
H294        H  0.47315679  0.15692603  0.22192535     0.09600
H295        H  0.40328892  0.22767294  0.21416197     0.10700
H296        H  0.39257366  0.17675619  0.37687847     0.16500
C297        C  0.07055466  0.18276375  0.43708982    -0.01700
C298        C  0.06911230  0.20410126  0.47871916     0.06900
C299        C  0.10196889  0.22176231  0.49527891    -0.07700
C300        C  0.13616162  0.21875512  0.47049154     0.04300
C301        C  0.13750109  0.19820636  0.42762341    -0.14900
C302        C  0.10432683  0.18009332  0.41198339    -0.08300
C303        C  0.03265697  0.21114576  0.50266440     0.05200
C304        C  0.01619346  0.18304599  0.53044906    -0.09400
C305        C  0.98139651  0.18914482  0.55296254     0.00200
C306        C  0.96278050  0.22422699  0.54803757     0.00100
C307        C  0.97891649  0.25149627  0.51828212    -0.12900
C308        C  0.01332410  0.24520015  0.49570461     0.00600
C309        C  0.96604466  0.15915429  0.58122223     0.39900
C310        C  0.02810761  0.27391530  0.46490709     0.36500
C311        C  0.03735004  0.16421839  0.41880677     0.36200
C312        C  0.16905965  0.23690861  0.49015826     0.37000
N313        N  0.95363704  0.13501989  0.60363893    -0.43800
N314        N  0.03997875  0.29674171  0.44000692    -0.44300
N315        N  0.19535698  0.25141498  0.50618964    -0.41600
N316        N  0.01066760  0.14939564  0.40435613    -0.43100
H317        H  0.10449506  0.16360830  0.37972808     0.13100
H318        H  0.10071826  0.23830919  0.52747435     0.09600
H319        H  0.03070868  0.15636682  0.53469605     0.10700
H320        H  0.96490369  0.27831294  0.51298436     0.16500
C321        C  0.25320452  0.26925778  0.06845640    -0.01700
C322        C  0.21748595  0.26564539  0.08995704     0.06900
C323        C  0.18615201  0.28339069  0.06872451    -0.07700
C324        C  0.18978553  0.30369888  0.02625848     0.04300
C325        C  0.22552111  0.30690711  0.00436277    -0.14900
C326        C  0.25683421  0.28939814  0.02613045    -0.08300
C327        C  0.21279350  0.24533999  0.13587224     0.05200
C328        C  0.20217219  0.26588053  0.17587947    -0.09400
C329        C  0.20059046  0.24906668  0.22069048     0.00200
C330        C  0.21016595  0.21055578  0.22651122     0.00100
C331        C  0.21872396  0.18954390  0.18576309    -0.12900
C332        C  0.21991010  0.20650098  0.14081934     0.00600
C333        C  0.18889952  0.27240434  0.25976862     0.39900
C334        C  0.22831797  0.18346169  0.10022541     0.36500
C335        C  0.28683221  0.25334072  0.08969218     0.36200
C336        C  0.15606991  0.31918490  0.00486719     0.37000
N337        N  0.17945630  0.29123323  0.29091899    -0.43800
N338        N  0.23497204  0.16497009  0.06766600    -0.44300
N339        N  0.12888626  0.33132877  0.98774815    -0.41600
N340        N  0.31386668  0.24058682  0.10648666    -0.43100
H341        H  0.28452011  0.29150038  0.01003121     0.13100
H342        H  0.15861100  0.28093982  0.08513523     0.09600
H343        H  0.19591036  0.29554560  0.17223433     0.10700
H344        H  0.22555430  0.15999782  0.18906491     0.16500
C345        C  0.32538685  0.28080938  0.66376655    -0.01700
C346        C  0.29318371  0.27311808  0.63568783     0.06900
C347        C  0.25818390  0.28827606  0.64896687    -0.07700
C348        C  0.25453330  0.30946052  0.69036221     0.04300
C349        C  0.28626167  0.31547314  0.71992308    -0.14900
C350        C  0.32172570  0.30194387  0.70550026    -0.08300
C351        C  0.29477441  0.24929655  0.59241017     0.05200
C352        C  0.27458758  0.21540790  0.59135393    -0.09400
C353        C  0.27174478  0.19413130  0.54965597     0.00200
C354        C  0.28932626  0.20682559  0.50783984     0.00100
C355        C  0.31050080  0.24014746  0.50955831    -0.12900
C356        C  0.31317048  0.26140076  0.55105585     0.00600
C357        C  0.24836119  0.16105615  0.54995156     0.39900
C358        C  0.33297159  0.29669315  0.54946025     0.36500
C359        C  0.36207573  0.26597466  0.65154312     0.36200
C360        C  0.21797118  0.32532022  0.70138411     0.37000
N361        N  0.22950130  0.13462165  0.55014222    -0.43800
N362        N  0.34883630  0.32497997  0.54815739    -0.44300
N363        N  0.18879378  0.33835422  0.70999038    -0.41600
N364        N  0.39151581  0.25421941  0.64156991    -0.43100
H365        H  0.34623192  0.30626685  0.72800536     0.13100
H366        H  0.23351855  0.28333885  0.62692231     0.09600
H367        H  0.25997123  0.20616609  0.62294844     0.10700
H368        H  0.32403551  0.25042985  0.47770888     0.16500
C369        C  0.29558137  0.90501116  0.25324878    -0.01700
C370        C  0.28917440  0.93682576  0.22444854     0.06900
C371        C  0.28609991  0.93229363  0.17534127    -0.07700
C372        C  0.29071558  0.89706832  0.15456153     0.04300
C373        C  0.29917351  0.86552507  0.18307567    -0.14900
C374        C  0.30049570  0.86963796  0.23240744    -0.08300
C375        C  0.28516620  0.97509678  0.24456488     0.05200
C376        C  0.31558360  0.99133788  0.26912534    -0.09400
C377        C  0.31226063  0.02706203  0.28965723     0.00200
C378        C  0.27796537  0.04732366  0.28522066     0.00100
C379        C  0.24841140  0.03152385  0.25829088    -0.12900
C380        C  0.25150435  0.99576452  0.23872757     0.00600
C381        C  0.34379646  0.04120711  0.31668502     0.39900
C382        C  0.21888239  0.98007370  0.21516175     0.36500
C383        C  0.29714161  0.90801911  0.30413863     0.36200
C384        C  0.28625534  0.89394633  0.10386240     0.37000
N385        N  0.36913344  0.05245908  0.33836724    -0.43800
N386        N  0.19268240  0.96749763  0.19647904    -0.44300
N387        N  0.28252174  0.89135445  0.06330262    -0.41600
N388        N  0.29834221  0.91047465  0.34493331    -0.43100
H389        H  0.30689736  0.84553374  0.25451729     0.13100
H390        H  0.28050705  0.95651679  0.15309868     0.09600
H391        H  0.34179515  0.97569625  0.27299725     0.10700
H392        H  0.22184189  0.04650027  0.25406485     0.16500
C393        C  0.34316566  0.58467000  0.05119583    -0.01700
C394        C  0.30815379  0.57415563  0.03168658     0.06900
C395        C  0.27651187  0.59738961  0.03813362    -0.07700
C396        C  0.27951033  0.63124907  0.06303578     0.04300
C397        C  0.31487347  0.64245430  0.08143303    -0.14900
C398        C  0.34630616  0.61859863  0.07561292    -0.08300
C399        C  0.30378479  0.53866935  0.00510898     0.05200
C400        C  0.28593104  0.50835621  0.02697747    -0.09400
C401        C  0.27980727  0.47476467  0.00252271     0.00200
C402        C  0.29145834  0.47126575  0.95471172     0.00100
C403        C  0.31054283  0.50154485  0.93363239    -0.12900
C404        C  0.31663425  0.53500445  0.95829105     0.00600
C405        C  0.26118570  0.44481696  0.02760796     0.39900
C406        C  0.33487260  0.56572309  0.93428644     0.36500
C407        C  0.37601481  0.56071409  0.04736459     0.36200
C408        C  0.24543577  0.65235697  0.07189093     0.37000
N409        N  0.24622168  0.42093061  0.04787163    -0.43800
N410        N  0.34944613  0.59034628  0.91501788    -0.44300
N411        N  0.21764607  0.66843231  0.07941694    -0.41600
N412        N  0.40226978  0.54140285  0.04446989    -0.43100
H413        H  0.37356676  0.62659295  0.08991051     0.13100
H414        H  0.24935761  0.58882606  0.02402876     0.09600
H415        H  0.27644402  0.51113074  0.06325971     0.10700
H416        H  0.31966897  0.49970890  0.89713528     0.16500
C417        C  0.19085054  0.91332779  0.50175888    -0.01700
C418        C  0.18957948  0.94765608  0.52648742     0.06900
C419        C  0.18669706  0.94725800  0.57588361    -0.07700
C420        C  0.18480402  0.91345060  0.60085945     0.04300
C421        C  0.18552517  0.87887599  0.57624581    -0.14900
C422        C  0.18892764  0.87930966  0.52670193    -0.08300
C423        C  0.19504593  0.98425245  0.50233667     0.05200
C424        C  0.16659687  0.99929836  0.47296488    -0.09400
C425        C  0.17207393  0.03338078  0.44877071     0.00200
C426        C  0.20661106  0.05281919  0.45394873     0.00100
C427        C  0.23407643  0.03826946  0.48529354    -0.12900
C428        C  0.22878192  0.00433608  0.50883486     0.00600
C429        C  0.14263571  0.04669743  0.41743496     0.39900
C430        C  0.25931494  0.98964354  0.53758353     0.36500
C431        C  0.19481509  0.91238405  0.45097080     0.36200
C432        C  0.18342036  0.91521679  0.65187939     0.37000
N433        N  0.11901754  0.05744664  0.39235697    -0.43800
N434        N  0.28377077  0.97770409  0.56044502    -0.44300
N435        N  0.18240596  0.91672173  0.69274949    -0.41600
N436        N  0.19799459  0.91165903  0.41025412    -0.43100
H437        H  0.18925164  0.85307283  0.50732556     0.13100
H438        H  0.18655650  0.97359977  0.59506428     0.09600
H439        H  0.14041506  0.98405862  0.46832511     0.10700
H440        H  0.26068787  0.05275319  0.49015101     0.16500
C441        C  0.29112044  0.81589267  0.91389246    -0.01700
C442        C  0.25404617  0.80232145  0.90673906     0.06900
C443        C  0.23565231  0.78468015  0.94432062    -0.07700
C444        C  0.25343357  0.78001310  0.98824075     0.04300
C445        C  0.29125606  0.79216727  0.99519227    -0.14900
C446        C  0.30954806  0.81030041  0.95755182    -0.08300
C447        C  0.23521753  0.80285463  0.85937826     0.05200
C448        C  0.25272539  0.78370356  0.82217644    -0.09400
C449        C  0.23543085  0.78081952  0.77777197     0.00200
C450        C  0.19952284  0.79747334  0.76951207     0.00100
C451        C  0.18162726  0.81622714  0.80700424    -0.12900
C452        C  0.19916579  0.81910147  0.85161887     0.00600
C453        C  0.25462813  0.75873851  0.74235000     0.39900
C454        C  0.17993508  0.83938289  0.88861460     0.36500
C455        C  0.31035227  0.83653838  0.87731356     0.36200
C456        C  0.23184382  0.76218278  0.02508803     0.37000
N457        N  0.27037524  0.74075946  0.71457945    -0.43800
N458        N  0.16448582  0.85559702  0.91829535    -0.44300
N459        N  0.21408481  0.74849721  0.05464957    -0.41600
N460        N  0.32556450  0.85333049  0.84803402    -0.43100
H461        H  0.33803938  0.82067336  0.96242438     0.13100
H462        H  0.20736453  0.77383549  0.93904530     0.09600
H463        H  0.27977367  0.77006857  0.82824966     0.10700
H464        H  0.15419353  0.82912676  0.80127882     0.16500
C465        C  0.24633048  0.69354945  0.44206119    -0.01700
C466        C  0.24000816  0.71770030  0.40338578     0.06900
C467        C  0.21071423  0.74435030  0.40569836    -0.07700
C468        C  0.18887286  0.74825446  0.44676112     0.04300
C469        C  0.19705927  0.72586918  0.48671758    -0.14900
C470        C  0.22538243  0.69823022  0.48356319    -0.08300
C471        C  0.26450649  0.71650737  0.36090406     0.05200
C472        C  0.25877245  0.68845219  0.32701813    -0.09400
C473        C  0.27948042  0.68823426  0.28489545     0.00200
C474        C  0.30661861  0.71638319  0.27630800     0.00100
C475        C  0.31395012  0.74311728  0.31151485    -0.12900
C476        C  0.29299916  0.74345600  0.35355490     0.00600
C477        C  0.27231305  0.65896532  0.25076175     0.39900
C478        C  0.30056681  0.77212258  0.38831248     0.36500
C479        C  0.27471807  0.66439055  0.44023149     0.36200
C480        C  0.15971524  0.77668823  0.44794897     0.37000
N481        N  0.26678580  0.63553003  0.22333091    -0.43800
N482        N  0.30656320  0.79502608  0.41629435    -0.44300
N483        N  0.13621742  0.79935167  0.44890285    -0.41600
N484        N  0.29724535  0.64081107  0.43852911    -0.43100
H485        H  0.23157051  0.68061392  0.51400397     0.13100
H486        H  0.20543426  0.76262394  0.37563457     0.09600
H487        H  0.23741556  0.66725703  0.33300898     0.10700
H488        H  0.33457025  0.76495030  0.30510457     0.16500
C489        C  0.20943548  0.58811854  0.66535253    -0.01700
C490        C  0.20852730  0.58281263  0.71473459     0.06900
C491        C  0.20202150  0.61372351  0.74437413    -0.07700
C492        C  0.19550205  0.64950104  0.72542406     0.04300
C493        C  0.19549241  0.65460410  0.67592061    -0.14900
C494        C  0.20270029  0.62376889  0.64640111    -0.08300
C495        C  0.21435373  0.54528532  0.73625388     0.05200
C496        C  0.24999196  0.52833291  0.73302776    -0.09400
C497        C  0.25737677  0.49393116  0.75504080     0.00200
C498        C  0.22869586  0.47600489  0.78150186     0.00100
C499        C  0.19276765  0.49273295  0.78391037    -0.12900
C500        C  0.18528660  0.52685997  0.76099550     0.00600
C501        C  0.29526925  0.47888786  0.75195484     0.39900
C502        C  0.14744789  0.54211633  0.76231833     0.36500
C503        C  0.21583095  0.55719332  0.63340615     0.36200
C504        C  0.18630218  0.67977861  0.75729761     0.37000
N505        N  0.32564269  0.46690268  0.74937747    -0.43800
N506        N  0.11708719  0.55430390  0.76290830    -0.44300
N507        N  0.17865158  0.70384070  0.78301923    -0.41600
N508        N  0.22097828  0.53244771  0.60774414    -0.43100
H509        H  0.20246405  0.62747028  0.60828682     0.13100
H510        H  0.20142586  0.60969785  0.78241946     0.09600
H511        H  0.27241493  0.54251573  0.71398895     0.10700
H512        H  0.17045938  0.47905299  0.80368914     0.16500
C513        C  0.56740692  0.70294895  0.92511236    -0.01700
C514        C  0.56548757  0.71131672  0.97359795     0.06900
C515        C  0.59902929  0.71664379  0.99932448    -0.07700
C516        C  0.63445216  0.71309884  0.97743650     0.04300
C517        C  0.63652011  0.70438801  0.92866427    -0.14900
C518        C  0.60254213  0.69987244  0.90310538    -0.08300
C519        C  0.52852943  0.71572121  0.99747871     0.05200
C520        C  0.51473127  0.68676059  0.02618078    -0.09400
C521        C  0.48002346  0.69051058  0.04976638     0.00200
C522        C  0.45884811  0.72412951  0.04516051     0.00100
C523        C  0.47224479  0.75217757  0.01438306    -0.12900
C524        C  0.50664149  0.74830168  0.99089596     0.00600
C525        C  0.46766655  0.65990966  0.07926281     0.39900
C526        C  0.51948838  0.77869486  0.96130549     0.36500
C527        C  0.53361329  0.69629644  0.89758714     0.36200
C528        C  0.66779434  0.71648360  0.00660618     0.37000
N529        N  0.45782008  0.63519496  0.10266607    -0.43800
N530        N  0.52974129  0.80305856  0.93760732    -0.44300
N531        N  0.69414403  0.71905189  0.03072593    -0.41600
N532        N  0.50647157  0.69083079  0.87572441    -0.43100
H533        H  0.60331392  0.69302328  0.86574343     0.13100
H534        H  0.59748316  0.72317046  0.03674438     0.09600
H535        H  0.53129735  0.66131673  0.03042850     0.10700
H536        H  0.45634355  0.77797902  0.00960547     0.16500
C537        C  0.99010203  0.74241768  0.76683558    -0.01700
C538        C  0.97097601  0.70865295  0.75760306     0.06900
C539        C  0.98769885  0.68212933  0.72743414    -0.07700
C540        C  0.02210181  0.68962450  0.70468158     0.04300
C541        C  0.04015589  0.72457418  0.71159861    -0.14900
C542        C  0.02412582  0.75012623  0.74386267    -0.08300
C543        C  0.93318955  0.70116739  0.77850831     0.05200
C544        C  0.90235875  0.72396557  0.76557204    -0.09400
C545        C  0.86662464  0.71911316  0.78608165     0.00200
C546        C  0.86130701  0.69105039  0.82096069     0.00100
C547        C  0.89231760  0.66779348  0.83287487    -0.12900
C548        C  0.92779283  0.67251777  0.81199756     0.00600
C549        C  0.83635988  0.74358094  0.77067237     0.39900
C550        C  0.95853627  0.64828472  0.82650449     0.36500
C551        C  0.97539743  0.76952710  0.80001594     0.36200
C552        C  0.03715250  0.66159255  0.67306296     0.37000
N553        N  0.81215829  0.76317322  0.75807676    -0.43800
N554        N  0.98317918  0.62883788  0.83803443    -0.44300
N555        N  0.04928135  0.63903780  0.64785821    -0.41600
N556        N  0.96363988  0.79112464  0.82676981    -0.43100
H557        H  0.03785083  0.77676058  0.75058230     0.13100
H558        H  0.97330400  0.65584296  0.72072923     0.09600
H559        H  0.90635971  0.74587706  0.73937325     0.10700
H560        H  0.88906476  0.64568834  0.85893719     0.16500
C561        C  0.78547485  0.40414629  0.74959482    -0.01700
C562        C  0.79118675  0.43838990  0.72580350     0.06900
C563        C  0.80091364  0.43829923  0.67800668    -0.07700
C564        C  0.80641805  0.40460891  0.65388247     0.04300
C565        C  0.80289774  0.36994410  0.67819356    -0.14900
C566        C  0.79149579  0.37020587  0.72576967    -0.08300
C567        C  0.78550196  0.47486444  0.74937811     0.05200
C568        C  0.81689665  0.49513936  0.76555745    -0.09400
C569        C  0.81228101  0.52988061  0.78822318     0.00200
C570        C  0.77550989  0.54472233  0.79481560     0.00100
C571        C  0.74440256  0.52449706  0.77666280    -0.12900
C572        C  0.74911888  0.49003470  0.75429131     0.00600
C573        C  0.84567659  0.54934341  0.80408630     0.39900
C574        C  0.71615875  0.47066977  0.73663034     0.36500
C575        C  0.77401752  0.40332314  0.79854540     0.36200
C576        C  0.81510169  0.40675570  0.60403265     0.37000
N577        N  0.87255847  0.56488346  0.81661921    -0.43800
N578        N  0.68976965  0.45518146  0.72245544    -0.44300
N579        N  0.82205359  0.40851185  0.56412181    -0.41600
N580        N  0.76469610  0.40277268  0.83773015    -0.43100
H581        H  0.78844686  0.34398497  0.74481453     0.13100
H582        H  0.80405919  0.46474765  0.65945606     0.09600
H583        H  0.84503907  0.48360070  0.76074690     0.10700
H584        H  0.71582831  0.53513010  0.78061030     0.16500
C585        C  0.65905819  0.43743229  0.05641141    -0.01700
C586        C  0.68328759  0.44260341  0.01769588     0.06900
C587        C  0.70522714  0.41218709  0.00175409    -0.07700
C588        C  0.70397821  0.37720407  0.02468750     0.04300
C589        C  0.68149497  0.37274265  0.06558206    -0.14900
C590        C  0.65876961  0.40317053  0.08021079    -0.08300
C591        C  0.68729621  0.48008823  0.99523580     0.05200
C592        C  0.70074531  0.50998161  0.02285966    -0.09400
C593        C  0.70704107  0.54529693  0.00280914     0.00200
C594        C  0.69923785  0.55131435  0.95452387     0.00100
C595        C  0.68430408  0.52195170  0.92728616    -0.12900
C596        C  0.67858778  0.48638933  0.94713033     0.00600
C597        C  0.72206844  0.57483369  0.03215986     0.39900
C598        C  0.66457552  0.45665368  0.91729707     0.36500
C599        C  0.63326944  0.46653476  0.07152480     0.36200
C600        C  0.72542609  0.34652742  0.00493347     0.37000
N601        N  0.73392833  0.59857335  0.05572900    -0.43800
N602        N  0.65356096  0.43272528  0.89337381    -0.44300
N603        N  0.74220710  0.32174797  0.98883067    -0.41600
N604        N  0.61233481  0.48965730  0.08343328    -0.43100
H605        H  0.64004807  0.40027545  0.11025076     0.13100
H606        H  0.72355378  0.41587663  0.97146327     0.09600
H607        H  0.70738855  0.50537040  0.05987929     0.10700
H608        H  0.67915485  0.52621787  0.88982676     0.16500
C609        C  0.49549967  0.79031189  0.28587443    -0.01700
C610        C  0.52409302  0.81334471  0.26738410     0.06900
C611        C  0.51838544  0.83093674  0.22343428    -0.07700
C612        C  0.48530550  0.82464113  0.19701239     0.04300
C613        C  0.45712325  0.80066807  0.21490246    -0.14900
C614        C  0.46247150  0.78404814  0.25957282    -0.08300
C615        C  0.56046378  0.81889781  0.29290453     0.05200
C616        C  0.58880267  0.79126119  0.29025200    -0.09400
C617        C  0.62428742  0.79657221  0.31179669     0.00200
C618        C  0.63173437  0.83006550  0.33683707     0.00100
C619        C  0.60267669  0.85713259  0.34033617    -0.12900
C620        C  0.56746845  0.85184622  0.31866523     0.00600
C621        C  0.65305055  0.76826578  0.30523236     0.39900
C622        C  0.53892150  0.88069052  0.32307890     0.36500
C623        C  0.49971369  0.77245997  0.33145558     0.36200
C624        C  0.48240032  0.84046265  0.15011074     0.37000
N625        N  0.67619946  0.74567850  0.29974281    -0.43800
N626        N  0.51597895  0.90373909  0.32657543    -0.44300
N627        N  0.48021419  0.85289239  0.11236303    -0.41600
N628        N  0.50305141  0.75821851  0.36804423    -0.43100
H629        H  0.44117197  0.76522067  0.27335361     0.13100
H630        H  0.54040327  0.84862958  0.20908564     0.09600
H631        H  0.58345652  0.76586789  0.27026907     0.10700
H632        H  0.60757291  0.88292920  0.35967323     0.16500
C633        C  0.93625096  0.84175909  0.42154254    -0.01700
C634        C  0.94105727  0.81420795  0.45659438     0.06900
C635        C  0.91108205  0.78990762  0.46711897    -0.07700
C636        C  0.87580192  0.79400116  0.44462849     0.04300
C637        C  0.87048869  0.82274027  0.41085565    -0.14900
C638        C  0.90132158  0.84566408  0.39888800    -0.08300
C639        C  0.97680765  0.81129285  0.48373472     0.05200
C640        C  0.98162386  0.83335213  0.52441370    -0.09400
C641        C  0.01417175  0.82968425  0.55259783     0.00200
C642        C  0.04235770  0.80349211  0.53994691     0.00100
C643        C  0.03818990  0.78290729  0.49784715    -0.12900
C644        C  0.00582242  0.78670857  0.46971152     0.00600
C645        C  0.01660425  0.85091297  0.59594272     0.39900
C646        C  0.00251085  0.76448012  0.42725225     0.36500
C647        C  0.96637132  0.86722127  0.40957140     0.36200
C648        C  0.84504397  0.77030392  0.45932108     0.37000
N649        N  0.01851852  0.86785533  0.63075902    -0.43800
N650        N  0.99987623  0.74671609  0.39317261    -0.44300
N651        N  0.82047860  0.75125342  0.47131527    -0.41600
N652        N  0.99048753  0.88768673  0.40012727    -0.43100
H653        H  0.89766592  0.86782323  0.37290265     0.13100
H654        H  0.91491712  0.76857515  0.49412282     0.09600
H655        H  0.95938559  0.85262561  0.53486105     0.10700
H656        H  0.05977785  0.76277015  0.48778378     0.16500
C657        C  0.77934853  0.76773602  0.05854923    -0.01700
C658        C  0.79046649  0.74992288  0.10095658     0.06900
C659        C  0.80108973  0.71182766  0.09945981    -0.07700
C660        C  0.79957486  0.69132058  0.05685009     0.04300
C661        C  0.78698398  0.70896089  0.01478717    -0.14900
C662        C  0.77786463  0.74742302  0.01639842    -0.08300
C663        C  0.78831295  0.77027382  0.14710054     0.05200
C664        C  0.75321584  0.78494514  0.16108223    -0.09400
C665        C  0.74942123  0.80531567  0.20305269     0.00200
C666        C  0.78107614  0.81105732  0.23273912     0.00100
C667        C  0.81641989  0.79687424  0.21867839    -0.12900
C668        C  0.82020822  0.77642197  0.17633499     0.00600
C669        C  0.71277956  0.82089112  0.21430536     0.39900
C670        C  0.85700490  0.76215405  0.16357976     0.36500
C671        C  0.76888238  0.80694120  0.05729000     0.36200
C672        C  0.81213661  0.65278764  0.05705236     0.37000
N673        N  0.68349729  0.83358501  0.22315202    -0.43800
N674        N  0.88648653  0.75058100  0.15345533    -0.44300
N675        N  0.82253056  0.62197094  0.05717580    -0.41600
N676        N  0.76024961  0.83826980  0.05625518    -0.43100
H677        H  0.76834015  0.76176530  0.98460389     0.13100
H678        H  0.80989558  0.69788811  0.13183323     0.09600
H679        H  0.72855321  0.78050538  0.13889172     0.10700
H680        H  0.84080681  0.80072540  0.24148755     0.16500
C681        C  0.74960055  0.77976369  0.58466032    -0.01700
C682        C  0.71374796  0.76992951  0.60226589     0.06900
C683        C  0.68118964  0.78241745  0.57821123    -0.07700
C684        C  0.68401072  0.80276691  0.53580337     0.04300
C685        C  0.71999502  0.81069418  0.51688287    -0.14900
C686        C  0.75240489  0.79957214  0.54219055    -0.08300
C687        C  0.70992324  0.74764769  0.64646143     0.05200
C688        C  0.69311922  0.76448412  0.68586479    -0.09400
C689        C  0.69266349  0.74624039  0.72971036     0.00200
C690        C  0.70940402  0.71023469  0.73474994     0.00100
C691        C  0.72400985  0.69242207  0.69443348    -0.12900
C692        C  0.72435230  0.71077031  0.65052715     0.00600
C693        C  0.67473337  0.76528403  0.76878914     0.39900
C694        C  0.74012399  0.69145279  0.61025991     0.36500
C695        C  0.78396060  0.77033999  0.60986625     0.36200
C696        C  0.64970264  0.81347665  0.51137402     0.37000
N697        N  0.66034804  0.78056806  0.80005297    -0.43800
N698        N  0.75288714  0.67610164  0.57796839    -0.44300
N699        N  0.62221781  0.82210392  0.49178092    -0.40800
N700        N  0.81150457  0.76278424  0.63000746    -0.43100
H701        H  0.78017270  0.80627365  0.52855010     0.13100
H702        H  0.65355207  0.77555642  0.59210176     0.09600
H703        H  0.68134174  0.79251157  0.68268341     0.10700
H704        H  0.73653666  0.66472237  0.69754074     0.16500
C705        C  0.82655930  0.02336605  0.48158173    -0.01700
C706        C  0.80127352  0.03656724  0.51618078     0.06900
C707        C  0.76881026  0.01594354  0.52639972    -0.07700
C708        C  0.76042442  0.98310320  0.50149938     0.04300
C709        C  0.78546116  0.96981489  0.46603700    -0.14900
C710        C  0.81866036  0.99013293  0.45703165    -0.08300
C711        C  0.80638896  0.07346366  0.53926100     0.05200
C712        C  0.79633288  0.10589525  0.51414726    -0.09400
C713        C  0.80061764  0.14152120  0.53425630     0.00200
C714        C  0.81484748  0.14509079  0.58091848     0.00100
C715        C  0.82450587  0.11219395  0.60605253    -0.12900
C716        C  0.82053315  0.07668355  0.58561432     0.00600
C717        C  0.79206286  0.17355927  0.50492055     0.39900
C718        C  0.83211106  0.04403426  0.61231816     0.36500
C719        C  0.86025129  0.04407449  0.47003355     0.36200
C720        C  0.72440353  0.96565966  0.51067687     0.37000
N721        N  0.78538851  0.19877005  0.48047051    -0.43800
N722        N  0.84160988  0.01793922  0.63371609    -0.44300
N723        N  0.69537872  0.95195445  0.51776563    -0.41600
N724        N  0.88714474  0.06088922  0.46086560    -0.43100
H725        H  0.83805730  0.98055076  0.42997305     0.13100
H726        H  0.74909059  0.02650034  0.55254741     0.09600
H727        H  0.78553966  0.10330695  0.47830081     0.10700
H728        H  0.83564548  0.11411482  0.64178236     0.16500
C729        C  0.68677959  0.03220076  0.28310723    -0.01700
C730        C  0.71130572  0.04447980  0.24720086     0.06900
C731        C  0.74155374  0.02160845  0.23344308    -0.07700
C732        C  0.74819794  0.98709655  0.25537094     0.04300
C733        C  0.72402473  0.97483035  0.29212283    -0.14900
C734        C  0.69328671  0.99764695  0.30519960    -0.08300
C735        C  0.70635240  0.08123197  0.22360142     0.05200
C736        C  0.70944387  0.11423454  0.25029213    -0.09400
C737        C  0.70440856  0.14946052  0.22914936     0.00200
C738        C  0.69736031  0.15193310  0.18002065     0.00100
C739        C  0.69523895  0.11869925  0.15335465    -0.12900
C740        C  0.69908304  0.08362221  0.17471622     0.00600
C741        C  0.70327480  0.18191347  0.25948061     0.39900
C742        C  0.69332879  0.05047902  0.14626246     0.36500
C743        C  0.65464814  0.05441605  0.29761411     0.36200
C744        C  0.78121450  0.96617846  0.24079141     0.37000
N745        N  0.70178473  0.20738213  0.28471168    -0.43800
N746        N  0.68842406  0.02393058  0.12357892    -0.44300
N747        N  0.80776417  0.94961284  0.22905177    -0.41600
N748        N  0.62892464  0.07223237  0.30930676    -0.43100
H749        H  0.67447629  0.98870320  0.33317901     0.13100
H750        H  0.76056423  0.03121418  0.20599460     0.09600
H751        H  0.71485950  0.11236439  0.28806795     0.10700
H752        H  0.68924253  0.12003872  0.11567811     0.16500
loop_ 
_geom_bond_atom_site_label_1 
_geom_bond_atom_site_label_2 
_geom_bond_distance 
_geom_bond_site_symmetry_2 
_ccdc_geom_bond_type 
O1          Cr19   2.042       .  S
O1            C9   1.276       .  A
O2          Cr19   1.960       .  S
O2            C3   1.255       .  A
C3            O4   1.269       .  A
C3          C666   1.484       .  S
O4          Cr20   2.035       .  S
O5          Cr20   1.961       .  S
O5            C6   1.257       .  A
C6            O7   1.269       .  A
C6          C733   1.482       .  S
O7          Cr21   2.018       .  S
O8          Cr21   1.952       .  S
O8            C9   1.257       .  A
C9          C618   1.492       .  S
O10         Cr19   1.959       .  S
O10          C18   1.254       .  A
O11         Cr19   2.040       .  S
O11          C12   1.274       .  A
C12          O13   1.255       .  A
C12         C637   1.481       .  S
O13         Cr20   1.941       .  S
O14         Cr20   2.033       .  S
O14          C15   1.272       .  A
C15          O16   1.258       .  A
C15         C709   1.489       .  S
O16         Cr21   1.964       .  S
O17         Cr21   2.023       .  S
O17          C18   1.266       .  A
C18         C685   1.480       .  S
Cr19         O22   1.762       .  S
Cr20         O22   1.766       .  S
Cr21         O22   1.767       .  S
O23         Cr41   2.003       .  S
O23          C31   1.269       .  A
O24         Cr41   1.984       .  S
O24          C25   1.256       .  A
C25          O26   1.263       .  A
C25         C661   1.494   1_556  S
O26         Cr42   2.011       .  S
O27         Cr42   1.987       .  S
O27          C28   1.263       .  A
C28          O29   1.263       .  A
C28         C594   1.471       .  S
O29         Cr43   1.986       .  S
O30         Cr43   1.993       .  S
O30          C31   1.266       .  A
C31         C517   1.489       .  S
O32         Cr41   1.993       .  S
O32          C40   1.258       .  A
O33         Cr41   1.992       .  S
O33          C34   1.268       .  A
C34          O35   1.270       .  A
C34         C546   1.497       .  S
O35         Cr42   2.005       .  S
O36         Cr42   2.000       .  S
O36          C37   1.265       .  A
C37          O38   1.258       .  A
C37         C570   1.491       .  S
O38         Cr43   1.964       .  S
O39         Cr43   1.996       .  S
O39          C40   1.260       .  A
C40         C690   1.486       .  S
Cr41         O44   1.771       .  S
Cr42         O44   1.774       .  S
Cr43         O44   1.771       .  S
O45         Cr63   1.994       .  S
O45          C53   1.260       .  A
O46         Cr63   1.987       .  S
O46          C47   1.264       .  A
C47          O48   1.265       .  A
C47         C493   1.474       .  S
O48         Cr64   1.999       .  S
O49         Cr64   1.994       .  S
O49          C50   1.264       .  A
C50          O51   1.263       .  A
C50         C541   1.492       .  S
O51         Cr65   1.988       .  S
O52         Cr65   2.004       .  S
O52          C53   1.264       .  A
C53         C450   1.489       .  S
O54         Cr63   1.996       .  S
O54          C62   1.267       .  A
O55         Cr63   1.995       .  S
O55          C56   1.259       .  A
C56          O57   1.260       .  A
C56         C469   1.479       .  S
O57         Cr64   1.996       .  S
O58         Cr64   1.979       .  S
O58          C59   1.261       .  A
C59          O60   1.265       .  A
C59         C642   1.476       .  S
O60         Cr65   1.995       .  S
O61         Cr65   1.999       .  S
O61          C62   1.266       .  A
C62         C421   1.485       .  S
Cr63         O66   1.770       .  S
Cr64         O66   1.770       .  S
Cr65         O66   1.773       .  S
O67         Cr85   1.991       .  S
O67          C75   1.258       .  A
O68         Cr85   1.989       .  S
O68          C69   1.266       .  A
C69          O70   1.267       .  A
C69         C397   1.482       .  S
O70         Cr86   2.001       .  S
O71         Cr86   1.996       .  S
O71          C72   1.265       .  A
C72          O73   1.262       .  A
C72         C522   1.490       .  S
O73         Cr87   1.979       .  S
O74         Cr87   2.006       .  S
O74          C75   1.264       .  A
C75         C445   1.494   1_554  S
O76         Cr85   1.993       .  S
O76          C84   1.266       .  A
O77         Cr85   1.990       .  S
O77          C78   1.257       .  A
C78          O79   1.260       .  A
C78         C474   1.478       .  S
O79         Cr86   2.000       .  S
O80         Cr86   1.981       .  S
O80          C81   1.260       .  A
C81          O82   1.266       .  A
C81         C613   1.480       .  S
O82         Cr87   2.001       .  S
O83         Cr87   1.994       .  S
O83          C84   1.266       .  A
C84         C373   1.476       .  S
Cr85         O88   1.776       .  S
Cr86         O88   1.774       .  S
Cr87         O88   1.773       .  S
O89        Cr107   1.995       .  S
O89          C97   1.268       .  A
O90        Cr107   1.998       .  S
O90          C91   1.261       .  A
C91          O92   1.265       .  A
C91         C330   1.500       .  S
O92        Cr108   2.006       .  S
O93        Cr108   1.972       .  S
O93          C94   1.260       .  A
C94          O95   1.266       .  A
C94         C378   1.489       .  S
O95        Cr109   2.000       .  S
O96        Cr109   1.992       .  S
O96          C97   1.266       .  A
C97         C282   1.488       .  S
O98        Cr107   1.991       .  S
O98         C106   1.259       .  A
O99        Cr107   1.998       .  S
O99         C100   1.265       .  A
C100        O101   1.264       .  A
C100        C301   1.492       .  S
O101       Cr108   1.989       .  S
O102       Cr108   2.005       .  S
O102        C103   1.267       .  A
C103        O104   1.261       .  A
C103        C426   1.489       .  S
O104       Cr109   1.974       .  S
O105       Cr109   2.005       .  S
O105        C106   1.263       .  A
C106        C354   1.489       .  S
Cr107       O110   1.771       .  S
Cr108       O110   1.770       .  S
Cr109       O110   1.767       .  S
O111       Cr129   2.041       .  S
O111        C119   1.274       .  A
O112       Cr129   1.965       .  S
O112        C113   1.256       .  A
C113        O114   1.271       .  A
C113        C325   1.495   1_556  S
O114       Cr130   2.036       .  S
O115       Cr130   1.969       .  S
O115        C116   1.258       .  A
C116        O117   1.269       .  A
C116        C402   1.491       .  S
O117       Cr131   2.020       .  S
O118       Cr131   1.948       .  S
O118        C119   1.254       .  A
C119        C229   1.474       .  S
O120       Cr129   1.961       .  S
O120        C128   1.254       .  A
O121       Cr129   2.038       .  S
O121        C122   1.273       .  A
C122        O123   1.255       .  A
C122        C253   1.484       .  S
O123       Cr130   1.951       .  S
O124       Cr130   2.030       .  S
O124        C125   1.273       .  A
C125        O126   1.259       .  A
C125        C498   1.481       .  S
O126       Cr131   1.962       .  S
O127       Cr131   2.033       .  S
O127        C128   1.268       .  A
C128        C349   1.483       .  S
Cr129       O132   1.765       .  S
Cr130       O132   1.766       .  S
Cr131       O132   1.770       .  S
O133       Cr151   1.987       .  S
O133        C141   1.255       .  A
O134       Cr151   1.990       .  S
O134        C135   1.268       .  A
C135        O136   1.266       .  A
C135        C565   1.482       .  S
O136       Cr152   1.992       .  S
O137       Cr152   2.001       .  S
O137        C138   1.265       .  A
C138        O139   1.261       .  A
C138        C258   1.483       .  S
O139       Cr153   1.982       .  S
O140       Cr153   1.994       .  S
O140        C141   1.259       .  A
C141        C181   1.472       .  S
O142       Cr151   1.990       .  S
O142        C150   1.267       .  A
O143       Cr151   1.982       .  S
O143        C144   1.255       .  A
C144        O145   1.265       .  A
C144        C210   1.493       .  S
O145       Cr152   2.011       .  S
O146       Cr152   1.980       .  S
O146        C147   1.263       .  A
C147        O148   1.263       .  A
C147        C306   1.489       .  S
O148       Cr153   1.988       .  S
O149       Cr153   2.003       .  S
O149        C150   1.269       .  A
C150        C714   1.490       .  S
Cr151       O154   1.774       .  S
Cr152       O154   1.772       .  S
Cr153       O154   1.770       .  S
O155       Cr173   1.983       .  S
O155        C163   1.258       .  A
O156       Cr173   2.003       .  S
O156        C157   1.267       .  A
C157        O158   1.263       .  A
C157        C589   1.492       .  S
O158       Cr174   1.985       .  S
O159       Cr174   2.007       .  S
O159        C160   1.268       .  A
C160        O161   1.261       .  A
C160        C234   1.495       .  S
O161       Cr175   1.974       .  S
O162       Cr175   1.999       .  S
O162        C163   1.261       .  A
C163        C186   1.488   1_554  S
O164       Cr173   1.997       .  S
O164        C172   1.267       .  A
O165       Cr173   1.988       .  S
O165        C166   1.258       .  A
C166        O167   1.267       .  A
C166        C205   1.491       .  S
O167       Cr174   2.012       .  S
O168       Cr174   1.977       .  S
O168        C169   1.261       .  A
C169        O170   1.265       .  A
C169        C277   1.488       .  S
O170       Cr175   1.996       .  S
O171       Cr175   1.988       .  S
O171        C172   1.265       .  A
C172        C738   1.479       .  S
Cr173       O176   1.769       .  S
Cr174       O176   1.766       .  S
Cr175       O176   1.767       .  S
C177        C178   1.412       .  A
C177        C182   1.399       .  A
C177        C191   1.443       .  S
C178        C183   1.481       .  S
C178        C179   1.401       .  A
C179        C180   1.400       .  A
C179        H198   1.084       .  S
C180        C181   1.414       .  A
C180        C192   1.445       .  S
C181        C182   1.400       .  A
C182        H197   1.085       .  S
C183        C184   1.404       .  A
C183        C188   1.405       .  A
C184        C185   1.405       .  A
C184        H199   1.087       .  S
C185        C186   1.416       .  A
C185        C189   1.444       .  S
C186        C187   1.410       .  A
C187        C188   1.395       .  A
C187        H200   1.087   1_556  S
C188        C190   1.445       .  S
C189        N193   1.157       .  T
C190        N194   1.157       .  T
C191        N196   1.157       .  T
C192        N195   1.157       .  T
C201        C202   1.416       .  A
C201        C206   1.407       .  A
C201        C215   1.443       .  S
C202        C207   1.496       .  S
C202        C203   1.400       .  A
C203        C204   1.398       .  A
C203        H222   1.084       .  S
C204        C205   1.421       .  A
C204        C216   1.446       .  S
C205        C206   1.405       .  A
C206        H221   1.084       .  S
C207        C208   1.400       .  A
C207        C212   1.416       .  A
C208        C209   1.398       .  A
C208        H223   1.084       .  S
C209        C210   1.422       .  A
C209        C213   1.446       .  S
C210        C211   1.405       .  A
C211        C212   1.407       .  A
C211        H224   1.084       .  S
C212        C214   1.443       .  S
C213        N217   1.157       .  T
C214        N218   1.157       .  T
C215        N220   1.157       .  T
C216        N219   1.157       .  T
C225        C226   1.415       .  A
C225        C230   1.406       .  A
C225        C239   1.444       .  S
C226        C231   1.490       .  S
C226        C227   1.402       .  A
C227        C228   1.398       .  A
C227        H246   1.084   1_556  S
C228        C229   1.412       .  A
C228        C240   1.445       .  S
C229        C230   1.403       .  A
C230        H245   1.084       .  S
C231        C232   1.408       .  A
C231        C236   1.407       .  A
C232        C233   1.407   1_556  A
C232        H247   1.087       .  S
C233        C234   1.415       .  A
C233        C237   1.443       .  S
C234        C235   1.412       .  A
C235        C236   1.395   1_554  A
C235        H248   1.086       .  S
C236        C238   1.445       .  S
C237        N241   1.157       .  T
C238        N242   1.157       .  T
C239        N244   1.157       .  T
C240        N243   1.157   1_556  T
C249        C250   1.413       .  A
C249        C254   1.406       .  A
C249        C263   1.443       .  S
C250        C255   1.487       .  S
C250        C251   1.399       .  A
C251        C252   1.400       .  A
C251        H270   1.085       .  S
C252        C253   1.417       .  A
C252        C264   1.445       .  S
C253        C254   1.404       .  A
C254        H269   1.085       .  S
C255        C256   1.400       .  A
C255        C260   1.411       .  A
C256        C257   1.401   1_455  A
C256        H271   1.083       .  S
C257        C258   1.415       .  A
C257        C261   1.445       .  S
C258        C259   1.405       .  A
C259        C260   1.406   1_655  A
C259        H272   1.083       .  S
C260        C262   1.443       .  S
C261        N265   1.157       .  T
C262        N266   1.157       .  T
C263        N268   1.157       .  T
C264        N267   1.157       .  T
C273        C274   1.404       .  A
C273        C278   1.395       .  A
C273        C287   1.445       .  S
C274        C279   1.480       .  S
C274        C275   1.403       .  A
C275        C276   1.406       .  A
C275        H294   1.085       .  S
C276        C277   1.416       .  A
C276        C288   1.443       .  S
C277        C278   1.410       .  A
C278        H293   1.085       .  S
C279        C280   1.404       .  A
C279        C284   1.404       .  A
C280        C281   1.405       .  A
C280        H295   1.086       .  S
C281        C282   1.416       .  A
C281        C285   1.443       .  S
C282        C283   1.410       .  A
C283        C284   1.395       .  A
C283        H296   1.086       .  S
C284        C286   1.444       .  S
C285        N289   1.157       .  T
C286        N290   1.157       .  T
C287        N292   1.157       .  T
C288        N291   1.157       .  T
C297        C298   1.403       .  A
C297        C302   1.395       .  A
C297        C311   1.445       .  S
C298        C303   1.480       .  S
C298        C299   1.404       .  A
C299        C300   1.404       .  A
C299        H318   1.086       .  S
C300        C301   1.418       .  A
C300        C312   1.444       .  S
C301        C302   1.412       .  A
C302        H317   1.085       .  S
C303        C304   1.403       .  A
C303        C308   1.404       .  A
C304        C305   1.405   1_455  A
C304        H319   1.086       .  S
C305        C306   1.418       .  A
C305        C309   1.444       .  S
C306        C307   1.410       .  A
C307        C308   1.394   1_655  A
C307        H320   1.085       .  S
C308        C310   1.445       .  S
C309        N313   1.158       .  T
C310        N314   1.157       .  T
C311        N316   1.157       .  T
C312        N315   1.158       .  T
C321        C322   1.411       .  A
C321        C326   1.402       .  A
C321        C335   1.444       .  S
C322        C327   1.496       .  S
C322        C323   1.406       .  A
C323        C324   1.408       .  A
C323        H342   1.085       .  S
C324        C325   1.415       .  A
C324        C336   1.443       .  S
C325        C326   1.408       .  A
C326        H341   1.085       .  S
C327        C328   1.400       .  A
C327        C332   1.413       .  A
C328        C329   1.402       .  A
C328        H343   1.085       .  S
C329        C330   1.422       .  A
C329        C333   1.445       .  S
C330        C331   1.408       .  A
C331        C332   1.407       .  A
C331        H344   1.084       .  S
C332        C334   1.443       .  S
C333        N337   1.157       .  T
C334        N338   1.157       .  T
C335        N340   1.157       .  T
C336        N339   1.157   1_554  T
C345        C346   1.414       .  A
C345        C350   1.407       .  A
C345        C359   1.443       .  S
C346        C351   1.491       .  S
C346        C347   1.402       .  A
C347        C348   1.400       .  A
C347        H366   1.085       .  S
C348        C349   1.414       .  A
C348        C360   1.445       .  S
C349        C350   1.405       .  A
C350        H365   1.085       .  S
C351        C352   1.407       .  A
C351        C356   1.409       .  A
C352        C353   1.406       .  A
C352        H367   1.086       .  S
C353        C354   1.413       .  A
C353        C357   1.444       .  S
C354        C355   1.408       .  A
C355        C356   1.400       .  A
C355        H368   1.086       .  S
C356        C358   1.444       .  S
C357        N361   1.157       .  T
C358        N362   1.157       .  T
C359        N364   1.157       .  T
C360        N363   1.157       .  T
C369        C370   1.413       .  A
C369        C374   1.403       .  A
C369        C383   1.444       .  S
C370        C375   1.486       .  S
C370        C371   1.402       .  A
C371        C372   1.397       .  A
C371        H390   1.085       .  S
C372        C373   1.414       .  A
C372        C384   1.446       .  S
C373        C374   1.403       .  A
C374        H389   1.085       .  S
C375        C376   1.406       .  A
C375        C380   1.407       .  A
C376        C377   1.405   1_565  A
C376        H391   1.085       .  S
C377        C378   1.415       .  A
C377        C381   1.443       .  S
C378        C379   1.411       .  A
C379        C380   1.395   1_545  A
C379        H392   1.085       .  S
C380        C382   1.445       .  S
C381        N385   1.157       .  T
C382        N386   1.157       .  T
C383        N388   1.157       .  T
C384        N387   1.157       .  T
C393        C394   1.406       .  A
C393        C398   1.398       .  A
C393        C407   1.444       .  S
C394        C399   1.481       .  S
C394        C395   1.403       .  A
C395        C396   1.403       .  A
C395        H414   1.084       .  S
C396        C397   1.412       .  A
C396        C408   1.441       .  S
C397        C398   1.408       .  A
C398        H413   1.084       .  S
C399        C400   1.399       .  A
C399        C404   1.407   1_554  A
C400        C401   1.401       .  A
C400        H415   1.085       .  S
C401        C402   1.420   1_554  A
C401        C405   1.444       .  S
C402        C403   1.409       .  A
C403        C404   1.400       .  A
C403        H416   1.084       .  S
C404        C406   1.444       .  S
C405        N409   1.158       .  T
C406        N410   1.157       .  T
C407        N412   1.157       .  T
C408        N411   1.157       .  T
C417        C418   1.411       .  A
C417        C422   1.405       .  A
C417        C431   1.444       .  S
C418        C423   1.486       .  S
C418        C419   1.401       .  A
C419        C420   1.399       .  A
C419        H438   1.085       .  S
C420        C421   1.417       .  A
C420        C432   1.445       .  S
C421        C422   1.406       .  A
C422        H437   1.085       .  S
C423        C424   1.406       .  A
C423        C428   1.406   1_565  A
C424        C425   1.409   1_565  A
C424        H439   1.084       .  S
C425        C426   1.415       .  A
C425        C429   1.443       .  S
C426        C427   1.409       .  A
C427        C428   1.394       .  A
C427        H440   1.084       .  S
C428        C430   1.445   1_545  S
C429        N433   1.157       .  T
C430        N434   1.157       .  T
C431        N436   1.157       .  T
C432        N435   1.157       .  T
C441        C442   1.414       .  A
C441        C446   1.407       .  A
C441        C455   1.443       .  S
C442        C447   1.493       .  S
C442        C443   1.399       .  A
C443        C444   1.399       .  A
C443        H462   1.084       .  S
C444        C445   1.421       .  A
C444        C456   1.443   1_556  S
C445        C446   1.406       .  A
C446        H461   1.084       .  S
C447        C448   1.400       .  A
C447        C452   1.415       .  A
C448        C449   1.398       .  A
C448        H463   1.085       .  S
C449        C450   1.418       .  A
C449        C453   1.445       .  S
C450        C451   1.405       .  A
C451        C452   1.407       .  A
C451        H464   1.084       .  S
C452        C454   1.443       .  S
C453        N457   1.157       .  T
C454        N458   1.157       .  T
C455        N460   1.157       .  T
C456        N459   1.157       .  T
C465        C466   1.408       .  A
C465        C470   1.400       .  A
C465        C479   1.444       .  S
C466        C471   1.485       .  S
C466        C467   1.405       .  A
C467        C468   1.404       .  A
C467        H486   1.086       .  S
C468        C469   1.411       .  A
C468        C480   1.444       .  S
C469        C470   1.406       .  A
C470        H485   1.086       .  S
C471        C472   1.401       .  A
C471        C476   1.412       .  A
C472        C473   1.401       .  A
C472        H487   1.085       .  S
C473        C474   1.414       .  A
C473        C477   1.445       .  S
C474        C475   1.403       .  A
C475        C476   1.403       .  A
C475        H488   1.085       .  S
C476        C478   1.444       .  S
C477        N481   1.157       .  T
C478        N482   1.157       .  T
C479        N484   1.157       .  T
C480        N483   1.157       .  T
C489        C490   1.409       .  A
C489        C494   1.398       .  A
C489        C503   1.444       .  S
C490        C495   1.483       .  S
C490        C491   1.404       .  A
C491        C492   1.401       .  A
C491        H510   1.085       .  S
C492        C493   1.411       .  A
C492        C504   1.444       .  S
C493        C494   1.404       .  A
C494        H509   1.085       .  S
C495        C496   1.399       .  A
C495        C500   1.411       .  A
C496        C497   1.398       .  A
C496        H511   1.087       .  S
C497        C498   1.418       .  A
C497        C501   1.445       .  S
C498        C499   1.404       .  A
C499        C500   1.402       .  A
C499        H512   1.086       .  S
C500        C502   1.444       .  S
C501        N505   1.157       .  T
C502        N506   1.157       .  T
C503        N508   1.157       .  T
C504        N507   1.157       .  T
C513        C514   1.405       .  A
C513        C518   1.396       .  A
C513        C527   1.444       .  S
C514        C519   1.482       .  S
C514        C515   1.403       .  A
C515        C516   1.405       .  A
C515        H534   1.085   1_556  S
C516        C517   1.416       .  A
C516        C528   1.442   1_556  S
C517        C518   1.410       .  A
C518        H533   1.085       .  S
C519        C520   1.403   1_556  A
C519        C524   1.405       .  A
C520        C521   1.406       .  A
C520        H535   1.084       .  S
C521        C522   1.417       .  A
C521        C525   1.443       .  S
C522        C523   1.410       .  A
C523        C524   1.395   1_554  A
C523        H536   1.084       .  S
C524        C526   1.445       .  S
C525        N529   1.157       .  T
C526        N530   1.157       .  T
C527        N532   1.157       .  T
C528        N531   1.157       .  T
C537        C538   1.408       .  A
C537        C542   1.399   1_655  A
C537        C551   1.445       .  S
C538        C543   1.489       .  S
C538        C539   1.405       .  A
C539        C540   1.406   1_655  A
C539        H558   1.085       .  S
C540        C541   1.416       .  A
C540        C552   1.443       .  S
C541        C542   1.409       .  A
C542        H557   1.085       .  S
C543        C544   1.405       .  A
C543        C548   1.406       .  A
C544        C545   1.405       .  A
C544        H559   1.086       .  S
C545        C546   1.418       .  A
C545        C549   1.444       .  S
C546        C547   1.412       .  A
C547        C548   1.400       .  A
C547        H560   1.085       .  S
C548        C550   1.444       .  S
C549        N553   1.158       .  T
C550        N554   1.157       .  T
C551        N556   1.157       .  T
C552        N555   1.157       .  T
C561        C562   1.409       .  A
C561        C566   1.402       .  A
C561        C575   1.444       .  S
C562        C567   1.476       .  S
C562        C563   1.396       .  A
C563        C564   1.395       .  A
C563        H582   1.085       .  S
C564        C565   1.420       .  A
C564        C576   1.446       .  S
C565        C566   1.406       .  A
C566        H581   1.085       .  S
C567        C568   1.403       .  A
C567        C572   1.402       .  A
C568        C569   1.405       .  A
C568        H583   1.085       .  S
C569        C570   1.416       .  A
C569        C573   1.443       .  S
C570        C571   1.414       .  A
C571        C572   1.392       .  A
C571        H584   1.084       .  S
C572        C574   1.445       .  S
C573        N577   1.157       .  T
C574        N578   1.157       .  T
C575        N580   1.157       .  T
C576        N579   1.157       .  T
C585        C586   1.406       .  A
C585        C590   1.394       .  A
C585        C599   1.445       .  S
C586        C591   1.487   1_554  S
C586        C587   1.407       .  A
C587        C588   1.406       .  A
C587        H606   1.085   1_554  S
C588        C589   1.415       .  A
C588        C600   1.443       .  S
C589        C590   1.411       .  A
C590        H605   1.084       .  S
C591        C592   1.406   1_556  A
C591        C596   1.411       .  A
C592        C593   1.400       .  A
C592        H607   1.084       .  S
C593        C594   1.408   1_554  A
C593        C597   1.443       .  S
C594        C595   1.404       .  A
C595        C596   1.402       .  A
C595        H608   1.084       .  S
C596        C598   1.444       .  S
C597        N601   1.157       .  T
C598        N602   1.157       .  T
C599        N604   1.157       .  T
C600        N603   1.157   1_554  T
C609        C610   1.408       .  A
C609        C614   1.401       .  A
C609        C623   1.444       .  S
C610        C615   1.487       .  S
C610        C611   1.405       .  A
C611        C612   1.405       .  A
C611        H630   1.085       .  S
C612        C613   1.411       .  A
C612        C624   1.444       .  S
C613        C614   1.406       .  A
C614        H629   1.085       .  S
C615        C616   1.405       .  A
C615        C620   1.405       .  A
C616        C617   1.407       .  A
C616        H631   1.085       .  S
C617        C618   1.414       .  A
C617        C621   1.443       .  S
C618        C619   1.411       .  A
C619        C620   1.399       .  A
C619        H632   1.085       .  S
C620        C622   1.444       .  S
C621        N625   1.157       .  T
C622        N626   1.157       .  T
C623        N628   1.157       .  T
C624        N627   1.157       .  T
C633        C634   1.404       .  A
C633        C638   1.396       .  A
C633        C647   1.444       .  S
C634        C639   1.480       .  S
C634        C635   1.405       .  A
C635        C636   1.405       .  A
C635        H654   1.085       .  S
C636        C637   1.411       .  A
C636        C648   1.443       .  S
C637        C638   1.408       .  A
C638        H653   1.085       .  S
C639        C640   1.404       .  A
C639        C644   1.406   1_655  A
C640        C641   1.403   1_655  A
C640        H655   1.085       .  S
C641        C642   1.411       .  A
C641        C645   1.443       .  S
C642        C643   1.406       .  A
C643        C644   1.398       .  A
C643        H656   1.085       .  S
C644        C646   1.444       .  S
C645        N649   1.157       .  T
C646        N650   1.157   1_455  T
C647        N652   1.157       .  T
C648        N651   1.157       .  T
C657        C658   1.410       .  A
C657        C662   1.396       .  A
C657        C671   1.445       .  S
C658        C663   1.495       .  S
C658        C659   1.409       .  A
C659        C660   1.411       .  A
C659        H678   1.085       .  S
C660        C661   1.414       .  A
C660        C672   1.442       .  S
C661        C662   1.409       .  A
C662        H677   1.085   1_554  S
C663        C664   1.404       .  A
C663        C668   1.414       .  A
C664        C665   1.398       .  A
C664        H679   1.085       .  S
C665        C666   1.412       .  A
C665        C669   1.445       .  S
C666        C667   1.406       .  A
C667        C668   1.409       .  A
C667        H680   1.084       .  S
C668        C670   1.443       .  S
C669        N673   1.157       .  T
C670        N674   1.157       .  T
C671        N676   1.157       .  T
C672        N675   1.157       .  T
C681        C682   1.410       .  A
C681        C686   1.397       .  A
C681        C695   1.445       .  S
C682        C687   1.487       .  S
C682        C683   1.406       .  A
C683        C684   1.405       .  A
C683        H702   1.084       .  S
C684        C685   1.413       .  A
C684        C696   1.444       .  S
C685        C686   1.405       .  A
C686        H701   1.085       .  S
C687        C688   1.399       .  A
C687        C692   1.413       .  A
C688        C689   1.400       .  A
C688        H703   1.085       .  S
C689        C690   1.419       .  A
C689        C693   1.445       .  S
C690        C691   1.405       .  A
C691        C692   1.403       .  A
C691        H704   1.084       .  S
C692        C694   1.444       .  S
C693        N697   1.157       .  T
C694        N698   1.157       .  T
C695        N700   1.157       .  T
C696        N699   1.157       .  T
C705        C706   1.408       .  A
C705        C710   1.403   1_545  A
C705        C719   1.444       .  S
C706        C711   1.481       .  S
C706        C707   1.398       .  A
C707        C708   1.399   1_545  A
C707        H726   1.085       .  S
C708        C709   1.421       .  A
C708        C720   1.445       .  S
C709        C710   1.407       .  A
C710        H725   1.084       .  S
C711        C712   1.400       .  A
C711        C716   1.406       .  A
C712        C713   1.401       .  A
C712        H727   1.086       .  S
C713        C714   1.416       .  A
C713        C717   1.441       .  S
C714        C715   1.411       .  A
C715        C716   1.400       .  A
C715        H728   1.085       .  S
C716        C718   1.444       .  S
C717        N721   1.156       .  T
C718        N722   1.157       .  T
C719        N724   1.157       .  T
C720        N723   1.157       .  T
C729        C730   1.409       .  A
C729        C734   1.399   1_545  A
C729        C743   1.444       .  S
C730        C735   1.480       .  S
C730        C731   1.399       .  A
C731        C732   1.396   1_545  A
C731        H750   1.085       .  S
C732        C733   1.419       .  A
C732        C744   1.445       .  S
C733        C734   1.406       .  A
C734        H749   1.085       .  S
C735        C736   1.403       .  A
C735        C740   1.407       .  A
C736        C737   1.401       .  A
C736        H751   1.086       .  S
C737        C738   1.413       .  A
C737        C741   1.442       .  S
C738        C739   1.407       .  A
C739        C740   1.394       .  A
C739        H752   1.086       .  S
C740        C742   1.445       .  S
C741        N745   1.157       .  T
C742        N746   1.157       .  T
C743        N748   1.157       .  T
C744        N747   1.157       .  T
