geometry optimzed in LAMMPS
_audit_creation_date              2020-12-01 
_audit_creation_method            'lammps2cif' 
_symmetry_space_group_name_H-M    'P1' 
_symmetry_Int_Tables_number       1 
_symmetry_cell_setting            triclinic 
loop_ 
_symmetry_equiv_pos_as_xyz 
  x,y,z 
_cell_length_a                    33.63721237 
_cell_length_b                    33.58643606220569 
_cell_length_c                    33.49408586353116 
_cell_angle_alpha                 90.14680073967102 
_cell_angle_beta                  90.04501813121932 
_cell_angle_gamma                 90.31673205359354 
loop_ 
_atom_site_label 
_atom_site_type_symbol 
_atom_site_fract_x 
_atom_site_fract_y 
_atom_site_fract_z 
_atom_site_charge 
O1          O  0.22633635  0.75846029  0.58998159    -0.82300
C2          C  0.08949368  0.77785316  0.49773472     0.97100
O3          O  0.10278107  0.74431009  0.50908225    -0.71400
O4          O  0.17685844  0.73205696  0.48684791    -0.75000
Al5        Al  0.15174355  0.73024583  0.53736103     1.49000
C6          C  0.21415898  0.73447360  0.48435532     0.92400
O7          O  0.20848023  0.83296889  0.50942182    -0.81200
O8          O  0.15022860  0.82528588  0.61215330    -0.74700
Al9        Al  0.21569494  0.79446311  0.54961336     1.90100
O10         O  0.15561575  0.86052931  0.53628996    -0.73800
O11         O  0.09338430  0.77870694  0.59052198    -0.73700
O12         O  0.10126553  0.80950899  0.51393798    -0.79300
O13         O  0.12602966  0.72268730  0.58682074    -0.77500
O14         O  0.16490624  0.78022118  0.54915536    -1.13700
O15         O  0.19928861  0.70598944  0.56219906    -0.72800
C16         C  0.22585895  0.72154822  0.58453552     0.97900
C17         C  0.18485943  0.86197529  0.51207716     0.94300
Al18       Al  0.12801024  0.81577667  0.56203125     1.55600
O19         O  0.23309865  0.75681099  0.50844422    -0.77500
C20         C  0.10029867  0.74399192  0.60367104     0.98400
C21         C  0.18551227  0.83466730  0.61925804     0.93300
O22         O  0.21155905  0.83330854  0.59208995    -0.82800
O23         O  0.28371767  0.86992405  0.76411727    -0.82300
C24         C  0.31491035  0.95829624  0.90317061     0.97100
O25         O  0.28070480  0.94701102  0.89167299    -0.71400
O26         O  0.26255222  0.97090242  0.81915985    -0.75000
Al27       Al  0.26293486  0.91998748  0.84360574     1.49000
C28         C  0.26303517  0.97473050  0.78169980     0.92400
O29         O  0.36181653  0.94929701  0.78027284    -0.81200
O30         O  0.35787099  0.84516645  0.83596022    -0.74700
Al31       Al  0.32183441  0.90949271  0.77430209     1.90100
O32         O  0.39231975  0.92117373  0.83081467    -0.73800
O33         O  0.31576482  0.86569829  0.89689976    -0.73700
O34         O  0.34576291  0.94246834  0.88936284    -0.79300
O35         O  0.25720755  0.87000014  0.86889588    -0.77500
O36         O  0.31156519  0.90850870  0.82628692    -1.13700
O37         O  0.23498830  0.89658366  0.79836934    -0.72800
C38         C  0.24719547  0.87482245  0.77002241     0.97900
C39         C  0.39200338  0.94647809  0.80260338     0.94300
Al40       Al  0.34987260  0.89488858  0.86047123     1.55600
O41         O  0.28412767  0.95139870  0.76087616    -0.77500
C42         C  0.28067177  0.85257403  0.89232360     0.98400
C43         C  0.36386873  0.83876321  0.79960291     0.93300
O44         O  0.35982054  0.86652288  0.77443903    -0.82800
O45         O  0.40642516  0.69050840  0.69889839    -0.82300
C46         C  0.49523487  0.55164177  0.67688886     0.97100
O47         O  0.48473159  0.56487528  0.71094424    -0.71400
O48         O  0.50674701  0.63818392  0.72636783    -0.75000
Al49       Al  0.45624117  0.61330996  0.72652075     1.49000
C50         C  0.51005726  0.67547093  0.72546761     0.92400
O51         O  0.48785799  0.67053495  0.62593579    -0.81200
O52         O  0.38179053  0.61659552  0.63043194    -0.74700
Al53       Al  0.44713809  0.67882683  0.66365173     1.90100
O54         O  0.45826219  0.61980026  0.59616435    -0.73800
O55         O  0.40078270  0.55727429  0.67570375    -0.73700
O56         O  0.47798560  0.56317008  0.64574201    -0.79300
O57         O  0.40699138  0.58714503  0.73340216    -0.77500
O58         O  0.44514745  0.62767951  0.67676848    -1.13700
O59         O  0.43081086  0.66036606  0.75151363    -0.72800
C60         C  0.40933750  0.68754437  0.73614205     0.97900
C61         C  0.48359319  0.64827706  0.59570886     0.94300
Al62       Al  0.43101491  0.59191268  0.63990884     1.55600
O63         O  0.48723499  0.69517267  0.70293588    -0.77500
C64         C  0.38893733  0.56270867  0.71126053     0.98400
C65         C  0.37724376  0.65246378  0.62139474     0.93300
O66         O  0.40635003  0.67643102  0.62323774    -0.82800
O67         O  0.78923004  0.58166707  0.19533991    -0.82300
C68         C  0.80933019  0.49594057  0.05418920     0.97100
O69         O  0.77581517  0.50818517  0.06668914    -0.71400
O70         O  0.75881295  0.48360393  0.13945204    -0.75000
Al71       Al  0.76107495  0.53509603  0.11629215     1.49000
C72         C  0.76100937  0.47859734  0.17667778     0.92400
O73         O  0.86119035  0.49985930  0.17371302    -0.81200
O74         O  0.85887673  0.60646676  0.12132974    -0.74700
Al75       Al  0.82389621  0.54092987  0.18261475     1.90100
O76         O  0.89138132  0.52987538  0.12391725    -0.73800
O77         O  0.81374929  0.58839878  0.06126857    -0.73700
O78         O  0.84113406  0.51082783  0.06727294    -0.79300
O79         O  0.75673628  0.58587582  0.09230366    -0.77500
O80         O  0.81102938  0.54407369  0.13148630    -1.13700
O81         O  0.73656272  0.55898980  0.16390966    -0.72800
C82         C  0.75213891  0.57916166  0.19209235     0.97900
C83         C  0.89155167  0.50421811  0.15191467     0.94300
Al84       Al  0.84830450  0.55758405  0.09615232     1.55600
O85         O  0.78438147  0.50042953  0.19700028    -0.77500
C86         C  0.77953601  0.60273741  0.06771810     0.98400
C87         C  0.86779544  0.61092831  0.15739608     0.93300
O88         O  0.86443118  0.58204878  0.18147873    -0.82800
O89         O  0.73076591  0.69644001  0.37654438    -0.82300
C90         C  0.58969428  0.67551185  0.46178369     0.97100
O91         O  0.60261458  0.70907499  0.44941375    -0.71400
O92         O  0.67531776  0.72262009  0.47663958    -0.75000
Al93       Al  0.65379516  0.72360051  0.42448210     1.49000
C94         C  0.71239408  0.72057956  0.48162612     0.92400
O95         O  0.70967443  0.62204072  0.45631602    -0.81200
O96         O  0.65564545  0.62749323  0.35114746    -0.74700
Al97       Al  0.71832806  0.66038065  0.41655891     1.90100
O98         O  0.65894100  0.59281523  0.42684096    -0.73800
O99         O  0.59784044  0.67370772  0.37102597    -0.73700
O100        O  0.60366505  0.64369374  0.44797116    -0.79300
O101        O  0.63171598  0.72961332  0.37308200    -0.77500
O102        O  0.66775890  0.67361521  0.41437076    -1.13700
O103        O  0.70341853  0.74876863  0.40322029    -0.72800
C104        C  0.73171311  0.73298994  0.38357539     0.97900
C105        C  0.68757648  0.59193374  0.45178472     0.94300
Al106      Al  0.63172023  0.63720018  0.40054866     1.55600
O107        O  0.73288458  0.69827843  0.45896102    -0.77500
C108        C  0.60589217  0.70776084  0.35657871     0.98400
C109        C  0.69143094  0.61922510  0.34540519     0.93300
O110        O  0.71637121  0.62158900  0.37370881    -0.82800
O111        O  0.91211505  0.76217926  0.25890675    -0.82300
C112        C  0.99852570  0.90326296  0.27646349     0.97100
O113        O  0.98711562  0.88930466  0.24288864    -0.71400
O114        O  0.01190660  0.81639398  0.23047279    -0.75000
Al115      Al  0.96076415  0.83865608  0.22901255     1.49000
C116        C  0.01635700  0.77932889  0.23245486     0.92400
O117        O  0.99364720  0.78471909  0.33037735    -0.81200
O118        O  0.88705521  0.83659167  0.32495050    -0.74700
Al119      Al  0.95288586  0.77490236  0.29346855     1.90100
O120        O  0.96354083  0.83488847  0.35972742    -0.73800
O121        O  0.90724661  0.89482990  0.27831452    -0.73700
O122        O  0.98367542  0.89040278  0.30840022    -0.79300
O123        O  0.91060808  0.86182984  0.22199469    -0.77500
O124        O  0.95051272  0.82535336  0.27917149    -1.13700
O125        O  0.93718584  0.78947097  0.20520486    -0.72800
C126        C  0.91578990  0.76266374  0.22168815     0.97900
C127        C  0.98908438  0.80690272  0.36045684     0.94300
Al128      Al  0.93661177  0.86152735  0.31507827     1.55600
O129        O  0.99345161  0.75902670  0.25466292    -0.77500
C130        C  0.89391031  0.88738214  0.24364696     0.98400
C131        C  0.88286875  0.80128011  0.33639473     0.93300
O132        O  0.91194984  0.77750818  0.33403231    -0.82800
O133        O  0.61992354  0.19203688  0.76413134    -0.82300
C134        C  0.52502706  0.05645011  0.78230322     0.97100
O135        O  0.53685976  0.07047466  0.74913323    -0.71400
O136        O  0.51543098  0.14485468  0.73936655    -0.75000
Al137      Al  0.56531493  0.11958488  0.73589578     1.49000
C138        C  0.51326644  0.18218806  0.74187138     0.92400
O139        O  0.54017609  0.17617356  0.83896470    -0.81200
O140        O  0.64065373  0.11553917  0.83149042    -0.74700
Al141      Al  0.57981153  0.18253062  0.80038673     1.90100
O142        O  0.56472704  0.12209028  0.86639915    -0.73800
O143        O  0.61794341  0.06010361  0.78317740    -0.73700
O144        O  0.54097746  0.06764482  0.81445373    -0.79300
O145        O  0.61411465  0.09369303  0.72729430    -0.77500
O146        O  0.57785069  0.13181411  0.78602163    -1.13700
O147        O  0.59010395  0.16750556  0.71176315    -0.72800
C148        C  0.61321891  0.19328562  0.72748825     0.97900
C149        C  0.54212150  0.15250564  0.86803043     0.94300
Al150      Al  0.58988488  0.09423210  0.82123146     1.55600
O151        O  0.53837083  0.20105238  0.76320297    -0.77500
C152        C  0.63076582  0.06749019  0.74820108     0.98400
C153        C  0.64888891  0.15074841  0.84067458     0.93300
O154        O  0.62252083  0.17742771  0.83891455    -0.82800
O155        O  0.79379351  0.25096298  0.87791575    -0.82300
C156        C  0.93367271  0.28389060  0.96363304     0.97100
O157        O  0.92188803  0.24934534  0.95346885    -0.71400
O158        O  0.84993151  0.23394025  0.97936850    -0.75000
Al159      Al  0.87315630  0.23105109  0.92806662     1.49000
C160        C  0.81270199  0.23440906  0.98340984     0.92400
O161        O  0.81205662  0.33060700  0.95432597    -0.81200
O162        O  0.86586520  0.32286429  0.84962867    -0.74700
Al163      Al  0.80501264  0.29009258  0.91610442     1.90100
O164        O  0.86227698  0.36021114  0.92433291    -0.73800
O165        O  0.92622381  0.28075728  0.87035515    -0.73700
O166        O  0.92034274  0.31421391  0.94645017    -0.79300
O167        O  0.89742435  0.22269898  0.87801756    -0.77500
O168        O  0.85660795  0.27928380  0.91467184    -1.13700
O169        O  0.82686294  0.20251647  0.90636933    -0.72800
C170        C  0.79881656  0.21442475  0.88404962     0.97900
C171        C  0.83425070  0.36065600  0.94987347     0.94300
Al172      Al  0.89099459  0.31663593  0.89904409     1.55600
O173        O  0.79176148  0.25414713  0.95922496    -0.77500
C174        C  0.92103526  0.24497449  0.85914816     0.98400
C175        C  0.82968201  0.32932905  0.84393049     0.93300
O176        O  0.80520028  0.32702401  0.87243782    -0.82800
O177        O  0.72956571  0.36906605  0.69387171    -0.82300
C178        C  0.71619585  0.45524658  0.55230974     0.97100
O179        O  0.74914208  0.44411737  0.56714848    -0.71400
O180        O  0.76438532  0.46721967  0.64067213    -0.75000
Al181      Al  0.76191899  0.41610870  0.61652700     1.49000
C182        C  0.76204412  0.47141330  0.67797045     0.92400
O183        O  0.66303922  0.45443859  0.67073986    -0.81200
O184        O  0.66239525  0.34665081  0.61994537    -0.74700
Al185      Al  0.69742922  0.41165815  0.68086594     1.90100
O186        O  0.63241811  0.42517189  0.62028049    -0.73800
O187        O  0.70935416  0.36128268  0.56106282    -0.73700
O188        O  0.68395348  0.43982969  0.56337406    -0.79300
O189        O  0.76649344  0.36598192  0.59170104    -0.77500
O190        O  0.71152113  0.40792469  0.62999409    -1.13700
O191        O  0.78394002  0.39038223  0.66442088    -0.72800
C192        C  0.76681649  0.37014450  0.69163244     0.97900
C193        C  0.63293667  0.45109634  0.64836592     0.94300
Al194      Al  0.67485727  0.39451737  0.59385849     1.55600
O195        O  0.73825433  0.44960922  0.69742696    -0.77500
C196        C  0.74396660  0.34798224  0.56766499     0.98400
C197        C  0.65235726  0.34367440  0.65576871     0.93300
O198        O  0.65460067  0.37361035  0.67859210    -0.82800
O199        O  0.29685641  0.19391720  0.08827434    -0.82300
C200        C  0.43704165  0.17893175  0.00149687     0.97100
O201        O  0.42373626  0.21164472  0.01517667    -0.71400
O202        O  0.35103878  0.22490745  0.98985567    -0.75000
Al203      Al  0.37328837  0.22410078  0.04145089     1.49000
C204        C  0.31405024  0.22225748  0.98451315     0.92400
O205        O  0.31769815  0.12283821  0.00579402    -0.81200
O206        O  0.37299715  0.12517861  0.11025088    -0.74700
Al207      Al  0.30909508  0.15961684  0.04713228     1.90100
O208        O  0.36934578  0.09374318  0.03296192    -0.73800
O209        O  0.43025973  0.17286049  0.09204234    -0.73700
O210        O  0.42396272  0.14615876  0.01397435    -0.79300
O211        O  0.39627732  0.22832821  0.09258124    -0.77500
O212        O  0.35972317  0.17357008  0.04941436    -1.13700
O213        O  0.32433505  0.24758232  0.06456467    -0.72800
C214        C  0.29646823  0.23080948  0.08403898     0.97900
C215        C  0.34081164  0.09353191  0.00794159     0.94300
Al216      Al  0.39627259  0.13723932  0.06116880     1.55600
O217        O  0.29374465  0.19874477  0.00623357    -0.77500
C218        C  0.42242090  0.20630472  0.10782353     0.98400
C219        C  0.33730708  0.11672720  0.11655770     0.93300
O220        O  0.31173372  0.11959898  0.08886912    -0.82800
O221        O  0.11761724  0.26408574  0.19788189    -0.82300
C222        C  0.03008288  0.40500269  0.18136605     0.97100
O223        O  0.04064644  0.39070173  0.21495393    -0.71400
O224        O  0.01843819  0.31724084  0.22882509    -0.75000
Al225      Al  0.06922608  0.34173811  0.22888998     1.49000
C226        C  0.01462837  0.28006545  0.22640362     0.92400
O227        O  0.03486063  0.28891676  0.12804853    -0.81200
O228        O  0.14266104  0.33965517  0.13244500    -0.74700
Al229      Al  0.07632485  0.27806075  0.16387159     1.90100
O230        O  0.06542750  0.33900232  0.09849479    -0.73800
O231        O  0.12452133  0.39839906  0.17893854    -0.73700
O232        O  0.04739700  0.39460512  0.14980280    -0.79300
O233        O  0.11878977  0.36738984  0.23588951    -0.77500
O234        O  0.07948665  0.32868782  0.17871079    -1.13700
O235        O  0.09492172  0.29372147  0.25178999    -0.72800
C236        C  0.11566047  0.26645503  0.23529731     0.97900
C237        C  0.03879195  0.31176844  0.09837369     0.94300
Al238      Al  0.09376216  0.36517622  0.14274078     1.55600
O239        O  0.03709370  0.26086525  0.20313196    -0.77500
C240        C  0.13679173  0.39201786  0.21408442     0.98400
C241        C  0.14600231  0.30396216  0.12196546     0.93300
O242        O  0.11583283  0.28130171  0.12248672    -0.82800
O243        O  0.24162080  0.08361056  0.26606295    -0.82300
C244        C  0.21134739  0.99608694  0.40509487     0.97100
O245        O  0.24550959  0.00732190  0.39334231    -0.71400
O246        O  0.26105640  0.98200991  0.32062088    -0.75000
Al247      Al  0.26290293  0.03314238  0.34418998     1.49000
C248        C  0.26138905  0.97806825  0.28321101     0.92400
O249        O  0.16355777  0.00555577  0.28121961    -0.81200
O250        O  0.16865222  0.10960154  0.33739503    -0.74700
Al251      Al  0.20368767  0.04447948  0.27562496     1.90100
O252        O  0.13343033  0.03355092  0.33226879    -0.73800
O253        O  0.21215327  0.08884945  0.39780005    -0.73700
O254        O  0.18058577  0.01191793  0.39094619    -0.79300
O255        O  0.27013129  0.08319110  0.36869804    -0.77500
O256        O  0.21426463  0.04539497  0.32747413    -1.13700
O257        O  0.29094927  0.05531664  0.29764245    -0.72800
C258        C  0.27816474  0.07753813  0.26987540     0.97900
C259        C  0.13317132  0.00917539  0.30297952     0.94300
Al260      Al  0.17663719  0.05966121  0.36192076     1.55600
O261        O  0.24107041  0.00176364  0.26197105    -0.77500
C262        C  0.24760034  0.10109880  0.39268082     0.98400
C263        C  0.16213368  0.11579826  0.30106416     0.93300
O264        O  0.16610042  0.08787122  0.27592975    -0.82800
O265        O  0.11278984  0.18007011  0.62581060    -0.82300
C266        C  0.02822458  0.05108809  0.67914233     0.97100
O267        O  0.04404283  0.06376911  0.64755132    -0.71400
O268        O  0.06269198  0.12150498  0.59818962    -0.75000
Al269      Al  0.09042470  0.09435937  0.64164026     1.49000
C270        C  0.03618870  0.14848540  0.59827285     0.92400
O271        O  0.03150411  0.19437864  0.70532707    -0.81200
O272        O  0.08959033  0.16093337  0.75374018    -0.74700
Al273      Al  0.07191074  0.18027048  0.66623509     1.90100
O274        O  0.01423415  0.13675013  0.72953111    -0.73800
O275        O  0.11569475  0.08969212  0.73465659    -0.73700
O276        O  0.03906072  0.06458157  0.71296062    -0.79300
O277        O  0.12124414  0.06029518  0.67672131    -0.77500
O278        O  0.07565170  0.12918735  0.67895250    -1.13700
O279        O  0.13901490  0.12119121  0.63245342    -0.72800
C280        C  0.14263173  0.15737030  0.62376827     0.97900
C281        C  0.00950643  0.17386769  0.72808256     0.94300
Al282      Al  0.06559847  0.11381370  0.72862945     1.55600
O283        O  0.03132198  0.17014291  0.62875787    -0.77500
C284        C  0.13347481  0.06565083  0.71213286     0.98400
C285        C  0.11018958  0.18907617  0.73886189     0.93300
O286        O  0.11213272  0.19382267  0.70170596    -0.82800
O287        O  0.15891136  0.36590820  0.77989571    -0.82300
C288        C  0.21078641  0.45670647  0.90652710     0.97100
O289        O  0.17919725  0.44161358  0.89311445    -0.71400
O290        O  0.12928197  0.41988418  0.83687054    -0.75000
Al291      Al  0.17330699  0.39388465  0.86503336     1.49000
C292        C  0.12861282  0.44469550  0.80809795     0.92400
O293        O  0.23513725  0.45107326  0.76304255    -0.81200
O294        O  0.28529149  0.39681609  0.79619692    -0.74700
Al295      Al  0.19730083  0.40879805  0.77814110     1.90100
O296        O  0.25864654  0.47021435  0.82079047    -0.73800
O297        O  0.26611521  0.36868330  0.86811552    -0.73700
O298        O  0.24439774  0.44484948  0.89400833    -0.79300
O299        O  0.20939324  0.36481496  0.89998547    -0.77500
O300        O  0.20995097  0.40773439  0.82933315    -1.13700
O301        O  0.16420302  0.34410125  0.84107789    -0.72800
C302        C  0.15664176  0.33787421  0.80498314     0.97900
C303        C  0.25746264  0.47409842  0.78334601     0.94300
Al304      Al  0.25959432  0.41892782  0.84417040     1.55600
O305        O  0.15841463  0.44827343  0.78546435    -0.77500
C306        C  0.24419317  0.35179860  0.89351915     0.98400
C307        C  0.27022881  0.37675914  0.76774224     0.93300
O308        O  0.23382655  0.36903778  0.76752758    -0.82800
O309        O  0.31409177  0.33692301  0.58617248    -0.82300
C310        C  0.43802747  0.27513740  0.50333496     0.97100
O311        O  0.42580164  0.30777145  0.51685211    -0.71400
O312        O  0.37176294  0.36039597  0.53536311    -0.75000
Al313      Al  0.39770887  0.31645407  0.56352057     1.49000
C314        C  0.34413725  0.36082208  0.50928574     0.92400
O315        O  0.29514146  0.25537894  0.50678048    -0.81200
O316        O  0.32404814  0.20784304  0.56664152    -0.74700
Al317      Al  0.31093933  0.29529369  0.54644909     1.90100
O318        O  0.35180138  0.22795309  0.49120573    -0.73800
O319        O  0.39658957  0.22577637  0.59490315    -0.73700
O320        O  0.42449544  0.24219756  0.51669520    -0.79300
O321        O  0.43118598  0.28103305  0.59449515    -0.77500
O322        O  0.36102180  0.28041885  0.55054748    -1.13700
O323        O  0.37294029  0.32780065  0.61215207    -0.72800
C324        C  0.33771848  0.33929097  0.61558592     0.97900
C325        C  0.31494469  0.23126935  0.48556941     0.94300
Al326      Al  0.37376312  0.22983771  0.54321976     1.55600
O327        O  0.32214136  0.33062295  0.50446493    -0.77500
C328        C  0.42288613  0.24782373  0.61041606     0.98400
C329        C  0.29609618  0.22529789  0.58540050     0.93300
O330        O  0.29633108  0.26250228  0.58833139    -0.82800
O331        O  0.66574561  0.08141621  0.18316081    -0.82300
C332        C  0.71432464  0.99462051  0.05297237     0.97100
O333        O  0.68337585  0.01043779  0.06660198    -0.71400
O334        O  0.63588765  0.02929604  0.12549861    -0.75000
Al335      Al  0.67850867  0.05691552  0.09698838     1.49000
C336        C  0.63606147  0.00409575  0.15391524     0.92400
O337        O  0.74307508  0.99915552  0.19599556    -0.81200
O338        O  0.79208610  0.05400216  0.16108316    -0.74700
Al339      Al  0.70505854  0.04006517  0.18274974     1.90100
O340        O  0.76444427  0.97945464  0.13772292    -0.73800
O341        O  0.77153703  0.08085221  0.09114815    -0.73700
O342        O  0.74834316  0.00528531  0.06551588    -0.79300
O343        O  0.71342491  0.08768144  0.06270810    -0.77500
O344        O  0.71615494  0.04222864  0.13116684    -1.13700
O345        O  0.66964460  0.10580592  0.12302190    -0.72800
C346        C  0.66194095  0.11024409  0.15933317     0.97900
C347        C  0.76379148  0.97568810  0.17511291     0.94300
Al348      Al  0.76509156  0.03089149  0.11467387     1.55600
O349        O  0.66658061  0.99998744  0.17542908    -0.77500
C350        C  0.74866530  0.09993904  0.06870045     0.98400
C351        C  0.77862742  0.07654996  0.18833289     0.93300
O352        O  0.74182906  0.08014637  0.19354640    -0.82800
O353        O  0.81154911  0.12315150  0.36491292    -0.82300
C354        C  0.93474274  0.17486092  0.46152159     0.97100
O355        O  0.92310630  0.14330117  0.44514427    -0.71400
O356        O  0.86853669  0.09304269  0.42287211    -0.75000
Al357      Al  0.89590461  0.13745124  0.39702334     1.49000
C358        C  0.83872945  0.09154868  0.44625813     0.92400
O359        O  0.79118395  0.19596766  0.45199362    -0.81200
O360        O  0.82605199  0.24828288  0.40018613    -0.74700
Al361      Al  0.80772702  0.16002397  0.40886534     1.90100
O362        O  0.84798242  0.21938914  0.47371681    -0.73800
O363        O  0.89820986  0.23119021  0.37361355    -0.73700
O364        O  0.92162052  0.20832528  0.45031383    -0.79300
O365        O  0.93016763  0.17474513  0.36846609    -0.77500
O366        O  0.85896783  0.17326361  0.40995102    -1.13700
O367        O  0.87389951  0.12747863  0.34694061    -0.72800
C368        C  0.83842123  0.12000450  0.33873284     0.97900
C369        C  0.81066706  0.21701147  0.47684590     0.94300
Al370      Al  0.87281084  0.22272077  0.42314405     1.55600
O371        O  0.81423423  0.11984358  0.44749075    -0.77500
C372        C  0.92352609  0.20983314  0.35610927     0.98400
C373        C  0.79906953  0.23497287  0.37722618     0.93300
O374        O  0.79663793  0.19837350  0.36983428    -0.82800
O375        O  0.61875056  0.27283478  0.33977681    -0.82300
C376        C  0.52823251  0.39696381  0.28459734     0.97100
O377        O  0.54455406  0.38496862  0.31607563    -0.71400
O378        O  0.56560552  0.32939311  0.36630026    -0.75000
Al379      Al  0.59199768  0.35702062  0.32199593     1.49000
C380        C  0.54056834  0.30069057  0.36716897     0.92400
O381        O  0.53658964  0.25255543  0.26134433    -0.81200
O382        O  0.59173918  0.28610840  0.21168171    -0.74700
Al383      Al  0.57718852  0.26957556  0.29985201     1.90100
O384        O  0.51654204  0.30949830  0.23798665    -0.73800
O385        O  0.61634870  0.35972767  0.22832367    -0.73700
O386        O  0.53910083  0.38330551  0.25079841    -0.79300
O387        O  0.62124876  0.39151337  0.28520153    -0.77500
O388        O  0.57839373  0.32052612  0.28596612    -1.13700
O389        O  0.64141852  0.33335461  0.33136232    -0.72800
C390        C  0.64695556  0.29786829  0.34113617     0.97900
C391        C  0.51301188  0.27226522  0.23957902     0.94300
Al392      Al  0.56698313  0.33400069  0.23613341     1.55600
O393        O  0.53669619  0.27784879  0.33743176    -0.77500
C394        C  0.63343724  0.38543008  0.24982170     0.98400
C395        C  0.61360560  0.25946068  0.22744992     0.93300
O396        O  0.61760746  0.25816116  0.26461893    -0.82800
O397        O  0.21942635  0.62288192  0.09172174    -0.82300
C398        C  0.09431797  0.67390025  0.99905979     0.97100
O399        O  0.10747960  0.64255589  0.01446291    -0.71400
O400        O  0.16246297  0.59310889  0.03704686    -0.75000
Al401      Al  0.13495431  0.63733947  0.06254148     1.49000
C402        C  0.19130517  0.59193959  0.01245100     0.92400
O403        O  0.23755380  0.69781182  0.00568359    -0.81200
O404        O  0.20537668  0.74904571  0.05881674    -0.74700
Al405      Al  0.22199942  0.66071349  0.04842017     1.90100
O406        O  0.18002160  0.72009859  0.98556040    -0.73800
O407        O  0.13321892  0.73076826  0.08695122    -0.73700
O408        O  0.10696652  0.70773900  0.01079407    -0.79300
O409        O  0.10063707  0.67418804  0.09089593    -0.77500
O410        O  0.17110194  0.67352774  0.04881764    -1.13700
O411        O  0.15815291  0.62852460  0.11266355    -0.72800
C412        C  0.19385960  0.62053747  0.11932600     0.97900
C413        C  0.21724588  0.71893075  0.98181758     0.94300
Al414      Al  0.15698986  0.72300717  0.03678702     1.55600
O415        O  0.21472799  0.62121455  0.00915596    -0.77500
C416        C  0.10755827  0.70912309  0.10379788     0.98400
C417        C  0.23313086  0.73430974  0.07983275     0.93300
O418        O  0.23256708  0.69799850  0.08815329    -0.82800
O419        O  0.41363152  0.77855821  0.12519678    -0.82300
C420        C  0.49988426  0.90297818  0.18488884     0.97100
O421        O  0.48357598  0.89177445  0.15303298    -0.71400
O422        O  0.46548390  0.83643011  0.10134942    -0.75000
Al423      Al  0.43723370  0.86257268  0.14539950     1.49000
C424        C  0.49094247  0.80837546  0.10078041     0.92400
O425        O  0.49262041  0.75896086  0.20532627    -0.81200
O426        O  0.43588424  0.79129396  0.25453307    -0.74700
Al427      Al  0.45328372  0.77566185  0.16650007     1.90100
O428        O  0.51202155  0.81528046  0.23156974    -0.73800
O429        O  0.41124802  0.86444893  0.23846210    -0.73700
O430        O  0.48906412  0.88873819  0.21835077    -0.79300
O431        O  0.40652072  0.89556765  0.18142810    -0.77500
O432        O  0.45092908  0.82623532  0.18132361    -1.13700
O433        O  0.38830158  0.83738681  0.13429771    -0.72800
C434        C  0.38460981  0.80214167  0.12245122     0.97900
C435        C  0.51583058  0.77816843  0.22807639     0.94300
Al436      Al  0.46106532  0.83938597  0.23172020     1.55600
O437        O  0.49467352  0.78555917  0.13039477    -0.77500
C438        C  0.39368297  0.88903323  0.21635620     0.98400
C439        C  0.41479365  0.76424826  0.23794939     0.93300
O440        O  0.41202205  0.76260871  0.20059812    -0.82800
O441        O  0.36934429  0.58495107  0.28164850    -0.82300
C442        C  0.31550482  0.49761684  0.40883088     0.97100
O443        O  0.34708909  0.51321163  0.39624501    -0.71400
O444        O  0.39674430  0.53166366  0.33922507    -0.75000
Al445      Al  0.35375366  0.55982333  0.36702218     1.49000
C446        C  0.39641312  0.50605767  0.31097867     0.92400
O447        O  0.29020721  0.50334520  0.26502105    -0.81200
O448        O  0.24197710  0.55961440  0.29923108    -0.74700
Al449      Al  0.32915174  0.54393853  0.28005369     1.90100
O450        O  0.26650644  0.48457912  0.32260298    -0.73800
O451        O  0.26122347  0.58596288  0.37121535    -0.73700
O452        O  0.28192337  0.50887215  0.39574700    -0.79300
O453        O  0.31866599  0.59048973  0.40162015    -0.77500
O454        O  0.31659939  0.54616215  0.33145644    -1.13700
O455        O  0.36409207  0.60884810  0.34207154    -0.72800
C456        C  0.37232170  0.61370732  0.30594718     0.97900
C457        C  0.26796473  0.48048045  0.28523640     0.94300
Al458      Al  0.26696503  0.53578290  0.34647116     1.55600
O459        O  0.36655068  0.50311794  0.28825104    -0.77500
C460        C  0.28376669  0.60341439  0.39574817     0.98400
C461        C  0.25664581  0.58091104  0.27150642     0.93300
O462        O  0.29366102  0.58466805  0.26795332    -0.82800
O463        O  0.71246176  0.83184670  0.86700332    -0.82300
C464        C  0.59174336  0.77908241  0.96355333     0.97100
O465        O  0.60399815  0.81012138  0.94679524    -0.71400
O466        O  0.65800144  0.85974818  0.92281664    -0.75000
Al467      Al  0.62946119  0.81524898  0.89818835     1.49000
C468        C  0.68744867  0.86097171  0.94677467     0.92400
O469        O  0.73465620  0.75552650  0.95091217    -0.81200
O470        O  0.70002926  0.70476924  0.89877374    -0.74700
Al471      Al  0.71682124  0.79307076  0.90942900     1.90100
O472        O  0.67817412  0.73284052  0.97379559    -0.73800
O473        O  0.62636443  0.72182470  0.87438683    -0.73700
O474        O  0.60386797  0.74506391  0.95204968    -0.79300
O475        O  0.59398051  0.77805315  0.87084559    -0.77500
O476        O  0.66603856  0.77955853  0.91089403    -1.13700
O477        O  0.65079180  0.82409493  0.84764440    -0.72800
C478        C  0.68589060  0.83401405  0.84036795     0.97900
C479        C  0.71555799  0.73440763  0.97590742     0.94300
Al480      Al  0.65258642  0.72997536  0.92353982     1.55600
O481        O  0.71084834  0.83181202  0.94945474    -0.77500
C482        C  0.60053391  0.74316938  0.85776970     0.98400
C483        C  0.72620661  0.72008730  0.87588718     0.93300
O484        O  0.72526044  0.75665147  0.86879161    -0.82800
O485        O  0.85768632  0.86868188  0.68754720    -0.82300
C486        C  0.81556163  0.96007486  0.55731544     0.97100
O487        O  0.84568391  0.94328828  0.57165272    -0.71400
O488        O  0.89135736  0.92105362  0.63041982    -0.75000
Al489      Al  0.84834248  0.89574813  0.60105012     1.49000
C490        C  0.89188860  0.94645021  0.65862431     0.92400
O491        O  0.78389716  0.95560219  0.69978790    -0.81200
O492        O  0.73351652  0.90138202  0.66262671    -0.74700
Al493      Al  0.82073984  0.91265488  0.68687663     1.90100
O494        O  0.76287811  0.97501883  0.64138967    -0.73800
O495        O  0.75502129  0.87349577  0.59236757    -0.73700
O496        O  0.78097993  0.94972225  0.56870920    -0.79300
O497        O  0.81351253  0.86691194  0.56487579    -0.77500
O498        O  0.81044691  0.91108333  0.63489472    -1.13700
O499        O  0.85516531  0.84606658  0.62636441    -0.72800
C500        C  0.86161630  0.84039880  0.66281148     0.97900
C501        C  0.76280846  0.97881321  0.67890683     0.94300
Al502      Al  0.76216045  0.92371530  0.61721777     1.55600
O503        O  0.86172606  0.95102243  0.68061619    -0.77500
C504        C  0.77808171  0.85482477  0.56948821     0.98400
C505        C  0.74546260  0.87954955  0.69098319     0.93300
O506        O  0.78187933  0.87442061  0.69722006    -0.82800
O507        O  0.90945581  0.67646230  0.84044728    -0.82300
C508        C  0.99525668  0.55117440  0.78239108     0.97100
O509        O  0.97944646  0.56278110  0.81433548    -0.71400
O510        O  0.96127087  0.61925733  0.86524631    -0.75000
Al511      Al  0.93295106  0.59220570  0.82139695     1.49000
C512        C  0.98713349  0.64728256  0.86543093     0.92400
O513        O  0.98884626  0.69608403  0.75952040    -0.81200
O514        O  0.93167237  0.66292272  0.71141467    -0.74700
Al515      Al  0.94932835  0.67942834  0.79917946     1.90100
O516        O  0.00767294  0.63908604  0.73526810    -0.73800
O517        O  0.90726989  0.58972902  0.72837098    -0.73700
O518        O  0.98450395  0.56564951  0.74898251    -0.79300
O519        O  0.90221624  0.55834257  0.78522628    -0.77500
O520        O  0.94672025  0.62849897  0.78510279    -1.13700
O521        O  0.88398922  0.61725583  0.83182034    -0.72800
C522        C  0.87984464  0.65308352  0.84145178     0.97900
C523        C  0.01133458  0.67634543  0.73659711     0.94300
Al524      Al  0.95681748  0.61497215  0.73501284     1.55600
O525        O  0.99074684  0.66997323  0.83559873    -0.77500
C526        C  0.88995991  0.56444917  0.74993165     0.98400
C527        C  0.91052448  0.69004841  0.72750251     0.93300
O528        O  0.90789475  0.69229592  0.76484867    -0.82800
C529        C  0.89925750  0.77621489  0.65545479    -0.21800
C530        C  0.87224386  0.80006191  0.67676686    -0.09800
C531        C  0.85365679  0.78424230  0.71070032     0.29100
C532        C  0.86299808  0.74607382  0.72385515    -0.21800
C533        C  0.89245888  0.72327943  0.70476183    -0.09800
C534        C  0.90988066  0.73832470  0.66966200     0.29100
F535        F  0.93904344  0.71786270  0.65077117    -0.20300
H536        H  0.91346221  0.78769339  0.62882224     0.17400
H537        H  0.84862247  0.73516739  0.75060336     0.17400
F538        F  0.82655876  0.80577971  0.73142823    -0.20300
C539        C  0.71424215  0.81643469  0.77532073    -0.21800
C540        C  0.69614951  0.84501361  0.79959128    -0.09800
C541        C  0.68591797  0.88218049  0.78371293     0.29100
C542        C  0.69721705  0.89181378  0.74468936    -0.21800
C543        C  0.71852862  0.86429138  0.72155153    -0.09800
C544        C  0.72513853  0.82587424  0.73639125     0.29100
F545        F  0.74499645  0.79861603  0.71417497    -0.20300
H546        H  0.72086440  0.78712239  0.78693794     0.17400
H547        H  0.69257646  0.92181271  0.73393053     0.17400
F548        F  0.66736108  0.90978393  0.80665799    -0.20300
C549        C  0.79297110  0.72243972  0.84556022    -0.21800
C550        C  0.76254575  0.69897227  0.86258960    -0.09800
C551        C  0.77090910  0.65913655  0.87222837     0.29100
C552        C  0.80923766  0.64383039  0.86546366    -0.21800
C553        C  0.83989793  0.66856803  0.85070758    -0.09800
C554        C  0.83113496  0.70802403  0.84084637     0.29100
F555        F  0.85941234  0.73301465  0.82624841    -0.20300
H556        H  0.78806850  0.75326015  0.83756568     0.17400
H557        H  0.81522307  0.61299934  0.87258116     0.17400
F558        F  0.74262726  0.63544242  0.88879744    -0.20300
C559        C  0.53317463  0.76289763  0.05940328    -0.21800
C560        C  0.51546128  0.80053295  0.06481012    -0.09800
C561        C  0.52134685  0.82979254  0.03557521     0.29100
C562        C  0.54499488  0.82175274  0.00228752    -0.21800
C563        C  0.56334578  0.78438052  0.99710213    -0.09800
C564        C  0.55674251  0.75476251  0.02586963     0.29100
F565        F  0.57404501  0.71851444  0.02241503    -0.20300
H566        H  0.52886550  0.73960692  0.08130749     0.17400
H567        H  0.54948310  0.84534530  0.98073696     0.17400
F568        F  0.50537527  0.86661403  0.03965466    -0.20300
C569        C  0.41245537  0.71952085  0.29793820    -0.21800
C570        C  0.39764349  0.73027761  0.26022375    -0.09800
C571        C  0.37263747  0.70321060  0.23967909     0.29100
C572        C  0.36615017  0.66520057  0.25449887    -0.21800
C573        C  0.38215430  0.65375870  0.29115209    -0.09800
C574        C  0.40411937  0.68166928  0.31374592     0.29100
F575        F  0.41918089  0.67167016  0.34993832    -0.20300
H576        H  0.43205114  0.73949828  0.31418014     0.17400
H577        H  0.34829432  0.64453133  0.23716080     0.17400
F578        F  0.35593746  0.71260198  0.20399707    -0.20300
C579        C  0.04213818  0.63385802  0.96385591    -0.21800
C580        C  0.06412521  0.66959988  0.96684494    -0.09800
C581        C  0.05927227  0.69853082  0.93704656     0.29100
C582        C  0.03401615  0.69108168  0.90446749    -0.21800
C583        C  0.01274678  0.65486536  0.90101331    -0.09800
C584        C  0.01664623  0.62656709  0.93158063     0.29100
F585        F  0.99686254  0.59127752  0.92983181    -0.20300
H586        H  0.04517054  0.61099026  0.98638603     0.17400
H587        H  0.03141943  0.71369263  0.88163414     0.17400
F588        F  0.08017052  0.73320003  0.93836476    -0.20300
C589        C  0.30583306  0.73319834  0.08243890    -0.21800
C590        C  0.27088516  0.75534831  0.08778839    -0.09800
C591        C  0.27379279  0.79504411  0.10049481     0.29100
C592        C  0.31127844  0.81108425  0.11030238    -0.21800
C593        C  0.34600058  0.78778242  0.10686195    -0.09800
C594        C  0.34280355  0.74899518  0.09161226     0.29100
F595        F  0.37523093  0.72562745  0.08649020    -0.20300
H596        H  0.30461826  0.70286221  0.07137188     0.17400
H597        H  0.31297959  0.84120949  0.12188288     0.17400
F598        F  0.24065480  0.81738189  0.10529381    -0.20300
C599        C  0.23370217  0.63729420  0.17875161    -0.21800
C600        C  0.20624331  0.61173331  0.16036341    -0.09800
C601        C  0.18924474  0.58043687  0.18240807     0.29100
C602        C  0.20260788  0.57270238  0.22131566    -0.21800
C603        C  0.23228290  0.59677885  0.23870261    -0.09800
C604        C  0.24611640  0.63035997  0.21778678     0.29100
F605        F  0.27335185  0.65531011  0.23443075    -0.20300
H606        H  0.24575856  0.66258517  0.16272059     0.17400
H607        H  0.19200730  0.54633011  0.23656688     0.17400
F608        F  0.16170411  0.55598890  0.16548375    -0.20300
C609        C  0.43381109  0.45746396  0.26767755    -0.21800
C610        C  0.43131109  0.47966254  0.30347427    -0.09800
C611        C  0.46210102  0.47575476  0.33159353     0.29100
C612        C  0.49379828  0.44980706  0.32436814    -0.21800
C613        C  0.49605341  0.42716166  0.28889702    -0.09800
C614        C  0.46578107  0.43165161  0.26033160     0.29100
F615        F  0.46611385  0.40998217  0.22608197    -0.20300
H616        H  0.41070473  0.45979522  0.24528673     0.17400
H617        H  0.51655009  0.44705437  0.34708519     0.17400
F618        F  0.46120571  0.49609157  0.36665237    -0.20300
C619        C  0.86472815  0.03350310  0.48526366    -0.21800
C620        C  0.83237206  0.05660513  0.47288950    -0.09800
C621        C  0.79423852  0.04704348  0.48773366     0.29100
C622        C  0.78886136  0.01524038  0.51431182    -0.21800
C623        C  0.82130452  0.99247453  0.52728552    -0.09800
C624        C  0.85951300  0.00214549  0.51237182     0.29100
F625        F  0.89217603  0.98178700  0.52429565    -0.20300
H626        H  0.89442585  0.04043199  0.47477882     0.17400
H627        H  0.75922098  0.00886760  0.52526210     0.17400
F628        F  0.76194059  0.06830932  0.47646011    -0.20300
C629        C  0.74515775  0.28213471  0.39347695    -0.21800
C630        C  0.76565735  0.25992128  0.36450446    -0.09800
C631        C  0.74774064  0.25309088  0.32723011     0.29100
C632        C  0.70903342  0.26586920  0.32013550    -0.21800
C633        C  0.68745505  0.28507268  0.35017999    -0.09800
C634        C  0.70601267  0.29440306  0.38653447     0.29100
F635        F  0.68576447  0.31363470  0.41576561    -0.20300
H636        H  0.75839988  0.28743802  0.42247383     0.17400
H637        H  0.69567472  0.26042742  0.29124482     0.17400
F638        F  0.76720986  0.23283136  0.29820942    -0.20300
C639        C  0.59952406  0.95498621  0.19711495    -0.21800
C640        C  0.60004285  0.98001848  0.16330069    -0.09800
C641        C  0.56579051  0.98190555  0.13933016     0.29100
C642        C  0.53263758  0.95837379  0.14824966    -0.21800
C643        C  0.53256064  0.93246400  0.18121749    -0.09800
C644        C  0.56613953  0.93147295  0.20609476     0.29100
F645        F  0.56766450  0.90618776  0.23760315    -0.20300
H646        H  0.62530335  0.95303225  0.21639128     0.17400
H647        H  0.50714072  0.95962455  0.12850657     0.17400
F648        F  0.56447136  0.00564675  0.10662899    -0.20300
C649        C  0.67382986  0.95922198  0.00137539    -0.21800
C650        C  0.70975589  0.96264625  0.02271939    -0.09800
C651        C  0.73899460  0.93339939  0.01730757     0.29100
C652        C  0.73167442  0.90084187  0.99212802    -0.21800
C653        C  0.69525326  0.89684631  0.97162230    -0.09800
C654        C  0.66660626  0.92686677  0.97602492     0.29100
F655        F  0.63102966  0.92444468  0.95699756    -0.20300
H656        H  0.65078023  0.98134678  0.00491562     0.17400
H657        H  0.75445038  0.87836001  0.98917908     0.17400
F658        F  0.77384995  0.93514419  0.03771514    -0.20300
C659        C  0.83420569  0.07176005  0.23667872    -0.21800
C660        C  0.80424566  0.09463170  0.21885112    -0.09800
C661        C  0.79030725  0.12873547  0.23863845     0.29100
C662        C  0.80111043  0.13596196  0.27803371    -0.21800
C663        C  0.82801593  0.11097432  0.29730564    -0.09800
C664        C  0.84669778  0.08042353  0.27568283     0.29100
F665        F  0.87476251  0.05739943  0.29316618    -0.20300
H666        H  0.84533614  0.04533787  0.22191959     0.17400
H667        H  0.78813930  0.16086834  0.29375373     0.17400
F668        F  0.76364737  0.15314880  0.22082794    -0.20300
C669        C  0.65585696  0.19954942  0.22644760    -0.21800
C670        C  0.63100897  0.22562085  0.20506410    -0.09800
C671        C  0.61759000  0.21392521  0.16698026     0.29100
C672        C  0.62814773  0.17645075  0.15152554    -0.21800
C673        C  0.65066858  0.14975393  0.17458886    -0.09800
C674        C  0.66461626  0.16189127  0.21206567     0.29100
F675        F  0.68651488  0.13719592  0.23526012    -0.20300
H676        H  0.66668175  0.20711701  0.25592769     0.17400
H677        H  0.61743652  0.16763828  0.12229665     0.17400
F678        F  0.59263801  0.23743787  0.14580361    -0.20300
C679        C  0.30145059  0.39877549  0.46131598    -0.21800
C680        C  0.33578122  0.39719911  0.48550301    -0.09800
C681        C  0.36084597  0.43083018  0.48710761     0.29100
C682        C  0.35273107  0.46413387  0.46352851    -0.21800
C683        C  0.31923732  0.46506088  0.43831804    -0.09800
C684        C  0.29307825  0.43237175  0.43814237     0.29100
F685        F  0.26069527  0.43187876  0.41393875    -0.20300
H686        H  0.28114336  0.37367775  0.45986409     0.17400
H687        H  0.37330349  0.48906362  0.46430351     0.17400
F688        F  0.39371874  0.43136320  0.51063439    -0.20300
C689        C  0.49128024  0.25868849  0.40501470    -0.21800
C690        C  0.51631854  0.29257995  0.40344726    -0.09800
C691        C  0.51779199  0.31801447  0.43680408     0.29100
C692        C  0.49393705  0.31038414  0.47005809    -0.21800
C693        C  0.46806025  0.27731239  0.47111975    -0.09800
C694        C  0.46739262  0.25104783  0.43849141     0.29100
F695        F  0.44195398  0.21953201  0.43784803    -0.20300
H696        H  0.48953794  0.23835311  0.37991849     0.17400
H697        H  0.49482737  0.33124608  0.49478423     0.17400
F698        F  0.54135633  0.35094612  0.43705214    -0.20300
C699        C  0.23852868  0.51688238  0.94148868    -0.21800
C700        C  0.20756200  0.48915625  0.93650662    -0.09800
C701        C  0.17204056  0.49457011  0.95823647     0.29100
C702        C  0.16742305  0.52746645  0.98339972    -0.21800
C703        C  0.19777584  0.55600336  0.98734305    -0.09800
C704        C  0.23375241  0.55008519  0.96643587     0.29100
F705        F  0.26432953  0.57643186  0.96976860    -0.20300
H706        H  0.26604514  0.51356906  0.92505382     0.17400
H707        H  0.13954841  0.53103954  0.99915006     0.17400
F708        F  0.14140993  0.46826151  0.95498659    -0.20300
C709        C  0.09255388  0.49591617  0.76716421    -0.21800
C710        C  0.09280685  0.46964977  0.80003455    -0.09800
C711        C  0.05895167  0.46825951  0.82469939     0.29100
C712        C  0.02680960  0.49372544  0.81759941    -0.21800
C713        C  0.02716297  0.52077201  0.78548900    -0.09800
C714        C  0.06016709  0.52107370  0.75985293     0.29100
F715        F  0.06222394  0.54725657  0.72911777    -0.20300
H716        H  0.11792444  0.49767102  0.74735439     0.17400
H717        H  0.00170191  0.49278199  0.83782158     0.17400
F718        F  0.05705556  0.44298822  0.85621046    -0.20300
C719        C  0.27013554  0.37893875  0.69488958    -0.21800
C720        C  0.29119700  0.37003221  0.72999485    -0.09800
C721        C  0.32979631  0.35500937  0.72732577     0.29100
C722        C  0.34588138  0.34668058  0.68960711    -0.21800
C723        C  0.32359577  0.35371245  0.65454230    -0.09800
C724        C  0.28597032  0.37101489  0.65765228     0.29100
F725        F  0.26381087  0.37936286  0.62484411    -0.20300
H726        H  0.24066769  0.39171351  0.69618550     0.17400
H727        H  0.37503781  0.33325163  0.68791300     0.17400
F728        F  0.35081162  0.34643862  0.76078012    -0.20300
C729        C  0.98075066  0.18448769  0.56397277    -0.21800
C730        C  0.01140930  0.15604966  0.56226530    -0.09800
C731        C  0.01814780  0.13601126  0.52590200     0.29100
C732        C  0.99397522  0.14350145  0.49274560    -0.21800
C733        C  0.96320743  0.17155593  0.49482288    -0.09800
C734        C  0.95694229  0.19224753  0.53063499     0.29100
F735        F  0.92630959  0.21817482  0.53411841    -0.20300
H736        H  0.97467725  0.20042407  0.59142437     0.17400
H737        H  0.99899120  0.12698265  0.46539587     0.17400
F738        F  0.04783728  0.10904440  0.52225490    -0.20300
C739        C  0.96760708  0.01686896  0.70652534    -0.21800
C740        C  0.99571645  0.02107638  0.67581443    -0.09800
C741        C  0.99047426  0.99868872  0.64046599     0.29100
C742        C  0.95724658  0.97392407  0.63563651    -0.21800
C743        C  0.92821148  0.97099646  0.66561192    -0.09800
C744        C  0.93411830  0.99227634  0.70153684     0.29100
F745        F  0.90748524  0.98961489  0.73184019    -0.20300
H746        H  0.97081841  0.03369936  0.73398059     0.17400
H747        H  0.95377394  0.95775179  0.60781590     0.17400
F748        F  0.01720243  0.00098031  0.61018634    -0.20300
C749        C  0.15983111  0.24248892  0.74636902    -0.21800
C750        C  0.12857118  0.22051449  0.76342463    -0.09800
C751        C  0.10925703  0.23561604  0.79743787     0.29100
C752        C  0.11912407  0.27367816  0.81182645    -0.21800
C753        C  0.14742481  0.29714248  0.79174645    -0.09800
C754        C  0.16878112  0.28062111  0.75988786     0.29100
F755        F  0.19794127  0.30150576  0.74126884    -0.20300
H756        H  0.17545799  0.23124892  0.72043280     0.17400
H757        H  0.10322433  0.28567296  0.83722304     0.17400
F758        F  0.07864228  0.21535455  0.81442623    -0.20300
C759        C  0.21250461  0.14920707  0.59813476    -0.21800
C760        C  0.18224508  0.17371335  0.61355188    -0.09800
C761        C  0.19120935  0.21352625  0.62264586     0.29100
C762        C  0.22929478  0.22841961  0.61640568    -0.21800
C763        C  0.25942528  0.20475254  0.59939293    -0.09800
C764        C  0.25067564  0.16470222  0.59044980     0.29100
F765        F  0.27835386  0.14095121  0.57328467    -0.20300
H766        H  0.20635304  0.11823808  0.59133163     0.17400
H767        H  0.23458708  0.25944804  0.62367965     0.17400
F768        F  0.16335907  0.23821677  0.63822056    -0.20300
C769        C  0.29919609  0.95213981  0.22351136    -0.21800
C770        C  0.29050538  0.95004296  0.26461694    -0.09800
C771        C  0.31483596  0.92590510  0.28878497     0.29100
C772        C  0.34775367  0.90628332  0.27267065    -0.21800
C773        C  0.35769323  0.90989708  0.23205058    -0.09800
C774        C  0.33231825  0.93235363  0.20733289     0.29100
F775        F  0.33961188  0.93563488  0.16763015    -0.20300
H776        H  0.28137309  0.97058298  0.20406922     0.17400
H777        H  0.36608186  0.88877590  0.29251367     0.17400
F778        F  0.30794026  0.92232833  0.32855148    -0.20300
C779        C  0.24086009  0.15548389  0.44456455    -0.21800
C780        C  0.26336138  0.13672824  0.41459538    -0.09800
C781        C  0.30130863  0.15263561  0.40554412     0.29100
C782        C  0.31671897  0.18498589  0.42708783    -0.21800
C783        C  0.29484531  0.20283342  0.45789705    -0.09800
C784        C  0.25633569  0.18810857  0.46604175     0.29100
F785        F  0.23461798  0.20344834  0.49649822    -0.20300
H786        H  0.21160205  0.14423914  0.45217346     0.17400
H787        H  0.34650410  0.19542902  0.42036717     0.17400
F788        F  0.32414110  0.13664822  0.37626104    -0.20300
C789        C  0.95761607  0.28105142  0.27413690    -0.21800
C790        C  0.98748099  0.25929781  0.25478761    -0.09800
C791        C  0.99505059  0.22013427  0.26785071     0.29100
C792        C  0.97408377  0.20400509  0.30042615    -0.21800
C793        C  0.94516176  0.22644354  0.32074238    -0.09800
C794        C  0.93662828  0.26501796  0.30642029     0.29100
F795        F  0.90848650  0.28794446  0.32399901    -0.20300
H796        H  0.95123235  0.31127354  0.26499336     0.17400
H797        H  0.98115079  0.17418424  0.31028465     0.17400
F798        F  0.02427788  0.19820606  0.25077114    -0.20300
C799        C  0.11670988  0.21944844  0.29370597    -0.21800
C800        C  0.13377324  0.23313139  0.25792055    -0.09800
C801        C  0.16243697  0.20909102  0.23887572     0.29100
C802        C  0.17081134  0.17105892  0.25305702    -0.21800
C803        C  0.15215582  0.15641531  0.28736978    -0.09800
C804        C  0.12625148  0.18155112  0.30870371     0.29100
F805        F  0.10844698  0.16862145  0.34265775    -0.20300
H806        H  0.09426219  0.23696756  0.30872195     0.17400
H807        H  0.19201308  0.15286208  0.23701830     0.17400
F808        F  0.18115357  0.22158630  0.20523008    -0.20300
C809        C  0.22860917  0.45936419  0.22480696    -0.21800
C810        C  0.23921377  0.45308897  0.26501516    -0.09800
C811        C  0.21725367  0.42500471  0.28714832     0.29100
C812        C  0.18460299  0.40532994  0.27009668    -0.21800
C813        C  0.17264788  0.41294020  0.23053506    -0.09800
C814        C  0.19577604  0.43959502  0.20766721     0.29100
F815        F  0.18633818  0.44729136  0.16906106    -0.20300
H816        H  0.24460482  0.48107421  0.20703976     0.17400
H817        H  0.16814352  0.38446920  0.28843634     0.17400
F818        F  0.22651129  0.41728961  0.32580979    -0.20300
C819        C  0.25348131  0.25868640  0.95913907    -0.21800
C820        C  0.29460096  0.25106113  0.95678394    -0.09800
C821        C  0.31803387  0.27601979  0.93238325     0.29100
C822        C  0.30114203  0.30810235  0.91220143    -0.21800
C823        C  0.26041492  0.31674051  0.91552661    -0.09800
C824        C  0.23648053  0.29110758  0.93875268     0.29100
F825        F  0.19680426  0.29740898  0.94205736    -0.20300
H826        H  0.23466385  0.24047423  0.97801549     0.17400
H827        H  0.32050598  0.32680705  0.89438232     0.17400
F828        F  0.35782385  0.27046840  0.92891270    -0.20300
C829        C  0.25576246  0.29317639  0.09467741    -0.21800
C830        C  0.25991160  0.25164430  0.09726747    -0.09800
C831        C  0.22624942  0.22853108  0.10804634     0.29100
C832        C  0.18979461  0.24618633  0.11457595    -0.21800
C833        C  0.18528368  0.28734183  0.11175121    -0.09800
C834        C  0.21880912  0.31109102  0.10250451     0.29100
F835        F  0.21577728  0.35129812  0.10031193    -0.20300
H836        H  0.28084304  0.31161371  0.08612553     0.17400
H837        H  0.16489386  0.22717364  0.12247447     0.17400
F838        F  0.22748967  0.18823248  0.11084195    -0.20300
C839        C  0.34144220  0.07460350  0.17807438    -0.21800
C840        C  0.32537493  0.10728178  0.15764501    -0.09800
C841        C  0.30152530  0.13432797  0.17854198     0.29100
C842        C  0.29098621  0.12706182  0.21792711    -0.21800
C843        C  0.30339393  0.09231931  0.23726680    -0.09800
C844        C  0.33022997  0.06685011  0.21771446     0.29100
F845        F  0.34291386  0.03301693  0.23559928    -0.20300
H846        H  0.36139806  0.05440613  0.16288058     0.17400
H847        H  0.27049747  0.14723336  0.23247456     0.17400
F848        F  0.28827183  0.16798208  0.16105034    -0.20300
C849        C  0.43503831  0.25877637  0.15930754    -0.21800
C850        C  0.44374072  0.22068130  0.14422928    -0.09800
C851        C  0.47218705  0.19753317  0.16450219     0.29100
C852        C  0.49264471  0.21325498  0.19770669    -0.21800
C853        C  0.48516377  0.25222424  0.21132652    -0.09800
C854        C  0.45535316  0.27439040  0.19218896     0.29100
F855        F  0.44674732  0.31199429  0.20423718    -0.20300
H856        H  0.41293954  0.27725279  0.14501321     0.17400
H857        H  0.51581866  0.19567940  0.21143157     0.17400
F858        F  0.48104104  0.16022024  0.15178105    -0.20300
C859        C  0.81060930  0.52792850  0.67681949    -0.21800
C860        C  0.79056069  0.49856610  0.69879936    -0.09800
C861        C  0.80237481  0.49198572  0.73872434     0.29100
C862        C  0.83431246  0.51357725  0.75547400    -0.21800
C863        C  0.85514372  0.54218241  0.73291965    -0.09800
C864        C  0.84219194  0.54955248  0.69345608     0.29100
F865        F  0.86046143  0.57717789  0.67021471    -0.20300
H866        H  0.80244859  0.53356471  0.64606374     0.17400
H867        H  0.84321353  0.50731982  0.78588249     0.17400
F868        F  0.78456758  0.46326427  0.76097880    -0.20300
C869        C  0.73495197  0.28873696  0.52114011    -0.21800
C870        C  0.75901156  0.31106892  0.54748967    -0.09800
C871        C  0.79798663  0.29734413  0.55490996     0.29100
C872        C  0.81319837  0.26459586  0.53420322    -0.21800
C873        C  0.79023331  0.24398226  0.50578267    -0.09800
C874        C  0.75016002  0.25532226  0.50079467     0.29100
F875        F  0.72626826  0.23569630  0.47457063    -0.20300
H876        H  0.70456912  0.29765049  0.51553789     0.17400
H877        H  0.84391971  0.25647059  0.53923646     0.17400
F878        F  0.82229434  0.31621445  0.58131680    -0.20300
C879        C  0.81794610  0.18402200  0.03744863    -0.21800
C880        C  0.79372651  0.20634335  0.01187532    -0.09800
C881        C  0.75327726  0.19554380  0.00812739     0.29100
C882        C  0.73862863  0.16116258  0.02683202    -0.21800
C883        C  0.76373504  0.13721180  0.05003270    -0.09800
C884        C  0.80333009  0.15001405  0.05636244     0.29100
F885        F  0.82867484  0.12908845  0.07977042    -0.20300
H886        H  0.84905963  0.19165937  0.04124641     0.17400
H887        H  0.70781691  0.15277397  0.02229830     0.17400
F888        F  0.72845309  0.21640820  0.98413637    -0.20300
C889        C  0.98592221  0.32453127  0.99849919    -0.21800
C890        C  0.96257047  0.28962044  0.99662866    -0.09800
C891        C  0.96468377  0.26235313  0.02823459     0.29100
C892        C  0.98943736  0.27000694  0.06094555    -0.21800
C893        C  0.01285214  0.30489562  0.06298731    -0.09800
C894        C  0.01099654  0.33208047  0.03113957     0.29100
F895        F  0.03267580  0.36628492  0.03176727    -0.20300
H896        H  0.98453741  0.34625433  0.97469108     0.17400
H897        H  0.99005708  0.24844561  0.08492224     0.17400
F898        F  0.94152758  0.22912421  0.02846456    -0.20300
C899        C  0.83969785  0.35863575  0.77615080    -0.21800
C900        C  0.81573679  0.33751119  0.80329898    -0.09800
C901        C  0.77946245  0.32137009  0.79037415     0.29100
C902        C  0.76662449  0.32778111  0.75156865    -0.21800
C903        C  0.78845278  0.35225779  0.72538037    -0.09800
C904        C  0.82595785  0.36652102  0.73747896     0.29100
F905        F  0.84800654  0.39017636  0.71318662    -0.20300
H906        H  0.86829453  0.37041908  0.78545248     0.17400
H907        H  0.73795377  0.31574035  0.74293750     0.17400
F908        F  0.75615252  0.29957115  0.81527109    -0.20300
C909        C  0.93598836  0.18811917  0.81295092    -0.21800
C910        C  0.94220088  0.22828562  0.82360224    -0.09800
C911        C  0.96764734  0.25145988  0.79946143     0.29100
C912        C  0.98736525  0.23423457  0.76670280    -0.21800
C913        C  0.98231377  0.19359397  0.75720457    -0.09800
C914        C  0.95568792  0.17094986  0.78044523     0.29100
F915        F  0.94941541  0.13173909  0.77259548    -0.20300
H916        H  0.91618998  0.16943640  0.83030583     0.17400
H917        H  0.00802833  0.25240744  0.74981645     0.17400
F918        F  0.97419268  0.29051069  0.80781114    -0.20300
C919        C  0.43198983  0.19814535  0.66545726    -0.21800
C920        C  0.44385346  0.23406598  0.64732973    -0.09800
C921        C  0.47539321  0.25577470  0.66499056     0.29100
C922        C  0.49587207  0.24042069  0.69821647    -0.21800
C923        C  0.48537267  0.20324583  0.71460371    -0.09800
C924        C  0.45232583  0.18292886  0.69849850     0.29100
F925        F  0.44052311  0.14736632  0.71373589    -0.20300
H926        H  0.40734554  0.18103644  0.65343058     0.17400
H927        H  0.52151059  0.25651417  0.70956012     0.17400
F928        F  0.48755531  0.29103525  0.64936576    -0.20300
C929        C  0.48891184  0.19191074  0.90243644    -0.21800
C930        C  0.51779935  0.16156250  0.90405613    -0.09800
C931        C  0.52281117  0.14082831  0.94011335     0.29100
C932        C  0.49779501  0.14852926  0.97258628    -0.21800
C933        C  0.46789327  0.17754394  0.97019846    -0.09800
C934        C  0.46427575  0.19993540  0.93516139     0.29100
F935        F  0.43513494  0.22748773  0.93150966    -0.20300
H936        H  0.48447431  0.20879438  0.87530827     0.17400
H937        H  0.50106839  0.13097639  0.99947517     0.17400
F938        F  0.55144186  0.11279686  0.94397922    -0.20300
C939        C  0.70849333  0.14899421  0.88577410    -0.21800
C940        C  0.69033993  0.16126513  0.85015876    -0.09800
C941        C  0.71281814  0.18253276  0.82206511     0.29100
C942        C  0.75087956  0.19601124  0.83156895    -0.21800
C943        C  0.76771323  0.18744280  0.86881789    -0.09800
C944        C  0.74727811  0.16177511  0.89499754     0.29100
F945        F  0.76333988  0.15194806  0.93076363    -0.20300
H946        H  0.69212873  0.13100406  0.90700862     0.17400
H947        H  0.76635482  0.21524474  0.81073083     0.17400
F948        F  0.69785261  0.19062863  0.78547217    -0.20300
C949        C  0.61717180  0.23641732  0.66619847    -0.21800
C950        C  0.62771548  0.22905265  0.70609378    -0.09800
C951        C  0.64673149  0.25975550  0.72817651     0.29100
C952        C  0.65284665  0.29690283  0.71155420    -0.21800
C953        C  0.64178625  0.30457525  0.67224233    -0.09800
C954        C  0.62477549  0.27382126  0.64906509     0.29100
F955        F  0.61436005  0.28030534  0.61049038    -0.20300
H956        H  0.60210514  0.21373690  0.64872562     0.17400
H957        H  0.66678628  0.31981913  0.72966985     0.17400
F958        F  0.65786874  0.25512809  0.76683413    -0.20300
C959        C  0.70857190  0.02971305  0.67423423    -0.21800
C960        C  0.73329472  0.00608949  0.69825838    -0.09800
C961        C  0.72462572  0.00392650  0.73951203     0.29100
C962        C  0.69128414  0.02349864  0.75555655    -0.21800
C963        C  0.66590240  0.04604643  0.73114042    -0.09800
C964        C  0.67555457  0.04942556  0.69022031     0.29100
F965        F  0.65244600  0.07087604  0.66502865    -0.20300
H966        H  0.71391799  0.03188811  0.64242786     0.17400
H967        H  0.68523762  0.02081314  0.78719172     0.17400
F968        F  0.74732472  0.98159149  0.76425868    -0.20300
C969        C  0.04052502  0.71893247  0.19541406    -0.21800
C970        C  0.04431117  0.75980320  0.20418954    -0.09800
C971        C  0.07033024  0.78299375  0.18072062     0.29100
C972        C  0.09066847  0.76603598  0.14866523    -0.21800
C973        C  0.08576395  0.72558666  0.13878265    -0.09800
C974        C  0.06097285  0.70191018  0.16307977     0.29100
F975        F  0.05600158  0.66250206  0.15541669    -0.20300
H976        H  0.02037300  0.70040511  0.21252594     0.17400
H977        H  0.10980159  0.78509992  0.13097561     0.17400
F978        F  0.07519897  0.82257521  0.18767840    -0.20300
C979        C  0.06098141  0.93674046  0.25170109    -0.21800
C980        C  0.03017200  0.93431518  0.27980531    -0.09800
C981        C  0.03216062  0.95903735  0.31394470     0.29100
C982        C  0.06508887  0.98383124  0.32071258    -0.21800
C983        C  0.09702664  0.98472746  0.29380544    -0.09800
C984        C  0.09410665  0.96154824  0.25852754     0.29100
F985        F  0.12350568  0.96218746  0.23079595    -0.20300
H986        H  0.06026897  0.91814728  0.22523609     0.17400
H987        H  0.06594807  0.00165844  0.34769231     0.17400
F988        F  0.00243439  0.95884697  0.34134508    -0.20300
C989        C  0.84299041  0.89747173  0.19006047    -0.21800
C990        C  0.85842083  0.90828563  0.22773474    -0.09800
C991        C  0.83932336  0.93857055  0.24943916     0.29100
C992        C  0.80650022  0.95819781  0.23318762    -0.21800
C993        C  0.79225864  0.94854649  0.19482345    -0.09800
C994        C  0.81049422  0.91744091  0.17363177     0.29100
F995        F  0.79763669  0.90697229  0.13660454    -0.20300
H996        H  0.85657350  0.87390967  0.17274936     0.17400
H997        H  0.79358717  0.98258257  0.24987370     0.17400
F998        F  0.85303083  0.95027697  0.28575555    -0.20300
C999        C  0.77031891  0.76418041  0.50018289    -0.21800
C1000       C  0.73201529  0.74961003  0.50911241    -0.09800
C1001       C  0.71019019  0.76868208  0.53940764     0.29100
C1002       C  0.72562499  0.80235466  0.55888210    -0.21800
C1003       C  0.76313910  0.81819385  0.54870740    -0.09800
C1004       C  0.78577001  0.79804439  0.51962400     0.29100
F1005       F  0.82221396  0.81175989  0.50881294    -0.20300
H1006       H  0.78753856  0.75068937  0.47645945     0.17400
H1007       H  0.70769804  0.81644576  0.58169187     0.17400
F1008       F  0.67330898  0.75551161  0.54946637    -0.20300
C1009       C  0.77180479  0.79332208  0.36105575    -0.21800
C1010       C  0.76963210  0.75371775  0.37408831    -0.09800
C1011       C  0.80526680  0.73187131  0.37765692     0.29100
C1012       C  0.84150937  0.74828848  0.36664758    -0.21800
C1013       C  0.84392052  0.78700738  0.35176377    -0.09800
C1014       C  0.80870406  0.80990751  0.34963778     0.29100
F1015       F  0.80961636  0.84770151  0.33541313    -0.20300
H1016       H  0.74499738  0.81082552  0.35842293     0.17400
H1017       H  0.86783831  0.73003497  0.36920853     0.17400
F1018       F  0.80547794  0.69411173  0.39197568    -0.20300
C1019       C  0.59778103  0.75906615  0.30295184    -0.21800
C1020       C  0.58509529  0.72297834  0.32034949    -0.09800
C1021       C  0.55266440  0.70266751  0.30288867     0.29100
C1022       C  0.53216011  0.71945621  0.27058185    -0.21800
C1023       C  0.54337985  0.75678237  0.25508771    -0.09800
C1024       C  0.57718744  0.77585797  0.27085888     0.29100
F1025       F  0.58972770  0.81131272  0.25594590    -0.20300
H1026       H  0.62324539  0.77502455  0.31484591     0.17400
H1027       H  0.50593868  0.70431175  0.25925773     0.17400
F1028       F  0.53958913  0.66749270  0.31795933    -0.20300
C1029       C  0.72805434  0.55595615  0.50327505    -0.21800
C1030       C  0.69662938  0.55542030  0.47526996    -0.09800
C1031       C  0.67504288  0.51979025  0.46998971     0.29100
C1032       C  0.68340218  0.48652935  0.49361616    -0.21800
C1033       C  0.71375113  0.48768164  0.52256984    -0.09800
C1034       C  0.73664370  0.52248675  0.52659872     0.29100
F1035       F  0.76546857  0.52513094  0.55489079    -0.20300
H1036       H  0.74558825  0.58270756  0.50789014     0.17400
H1037       H  0.66530334  0.45997758  0.49002935     0.17400
F1038       F  0.64539091  0.51710552  0.44259707    -0.20300
C1039       C  0.67833371  0.40214615  0.19219636    -0.21800
C1040       C  0.66790425  0.40811235  0.23253232    -0.09800
C1041       C  0.69112956  0.43496672  0.25522234     0.29100
C1042       C  0.72292490  0.45593782  0.23751923    -0.21800
C1043       C  0.73236792  0.45085935  0.19680177    -0.09800
C1044       C  0.70982523  0.42315720  0.17452015     0.29100
F1045       F  0.71753850  0.41685423  0.13523453    -0.20300
H1046       H  0.66158669  0.38147171  0.17377886     0.17400
H1047       H  0.73917904  0.47744925  0.25541544     0.17400
F1048       F  0.68290247  0.44149897  0.29433911    -0.20300
C1049       C  0.84825416  0.46007674  0.00231483    -0.21800
C1050       C  0.81282134  0.46342096  0.02441390    -0.09800
C1051       C  0.78387714  0.43333308  0.02073332     0.29100
C1052       C  0.79086879  0.40029239  0.99607791    -0.21800
C1053       C  0.82671899  0.39665619  0.97454688    -0.09800
C1054       C  0.85523665  0.42722274  0.97773554     0.29100
F1055       F  0.89058553  0.42480912  0.95838341    -0.20300
H1056       H  0.87124891  0.48267127  0.00476646     0.17400
H1057       H  0.76832969  0.37719928  0.99429266     0.17400
F1058       F  0.74983137  0.43475384  0.04241030    -0.20300
C1059       C  0.92936424  0.45511573  0.19424025    -0.21800
C1060       C  0.92786754  0.48009199  0.16040770    -0.09800
C1061       C  0.96161438  0.48206843  0.13563267     0.29100
C1062       C  0.99515923  0.45894106  0.14394356    -0.21800
C1063       C  0.99639765  0.43344069  0.17727901    -0.09800
C1064       C  0.96317318  0.43213588  0.20268946     0.29100
F1065       F  0.96247694  0.40718361  0.23448894    -0.20300
H1066       H  0.90406939  0.45296716  0.21411453     0.17400
H1067       H  0.02017026  0.46046967  0.12363325     0.17400
F1068       F  0.96213626  0.50572081  0.10283316    -0.20300
C1069       C  0.87533004  0.70121027  0.22312202    -0.21800
C1070       C  0.89858468  0.72782655  0.20035486    -0.09800
C1071       C  0.91052230  0.71608950  0.16184363     0.29100
C1072       C  0.90028219  0.67796119  0.14745133    -0.21800
C1073       C  0.87968921  0.65070207  0.17195851    -0.09800
C1074       C  0.86721221  0.66293012  0.20983096     0.29100
F1075       F  0.84713223  0.63783142  0.23435767    -0.20300
H1076       H  0.86516506  0.70906878  0.25279184     0.17400
H1077       H  0.90957184  0.66922477  0.11775194     0.17400
F1078       F  0.93334161  0.74043932  0.13898902    -0.20300
C1079       C  0.74802747  0.62482266  0.24924888    -0.21800
C1080       C  0.72907382  0.59582807  0.22555019    -0.09800
C1081       C  0.69514720  0.57634754  0.24063047     0.29100
C1082       C  0.68245048  0.58414343  0.27981729    -0.21800
C1083       C  0.70446522  0.61002188  0.30460210    -0.09800
C1084       C  0.73689256  0.63084705  0.28866486     0.29100
F1085       F  0.75807259  0.65707257  0.31114727    -0.20300
H1086       H  0.77359623  0.64091171  0.23807186     0.17400
H1087       H  0.65655505  0.56874721  0.29139101     0.17400
F1088       F  0.67615786  0.54791456  0.21882642    -0.20300
C1089       C  0.78831018  0.65750107  0.01622300    -0.21800
C1090       C  0.76555244  0.63949755  0.04662116    -0.09800
C1091       C  0.72894932  0.65724287  0.05688802     0.29100
C1092       C  0.71459672  0.69005470  0.03570506    -0.21800
C1093       C  0.73613644  0.70665185  0.00386158    -0.09800
C1094       C  0.77389655  0.69069547  0.99506795     0.29100
F1095       F  0.79581439  0.70540291  0.96439889    -0.20300
H1096       H  0.81681875  0.64515316  0.00794185     0.17400
H1097       H  0.68554513  0.70158289  0.04332033     0.17400
F1098       F  0.70619957  0.64244868  0.08689991    -0.20300
C1099       C  0.56538101  0.67270424  0.77524003    -0.21800
C1100       C  0.53689406  0.69546997  0.75496988    -0.09800
C1101       C  0.53015909  0.73481471  0.76818612     0.29100
C1102       C  0.55078782  0.75025376  0.80144820    -0.21800
C1103       C  0.57848350  0.72691852  0.82239267    -0.09800
C1104       C  0.58588112  0.68797305  0.80830651     0.29100
F1105       F  0.61241946  0.66395711  0.82685281    -0.20300
H1106       H  0.57102596  0.64225619  0.76621066     0.17400
H1107       H  0.54458375  0.78036124  0.81117564     0.17400
F1108       F  0.50219243  0.75773539  0.75039786    -0.20300
C1109       C  0.34450215  0.54550748  0.76890788    -0.21800
C1110       C  0.35357805  0.54101315  0.72809573    -0.09800
C1111       C  0.32789694  0.51717700  0.70463827     0.29100
C1112       C  0.29510314  0.49746095  0.72213693    -0.21800
C1113       C  0.28694652  0.50111538  0.76332656    -0.09800
C1114       C  0.31195267  0.52604389  0.78628080     0.29100
F1115       F  0.30590060  0.53079607  0.82607568    -0.20300
H1116       H  0.36312053  0.56386324  0.78796985     0.17400
H1117       H  0.27692379  0.47812310  0.70362409     0.17400
F1118       F  0.33452752  0.51256468  0.66494187    -0.20300
C1119       C  0.56486746  0.47559786  0.63040205    -0.21800
C1120       C  0.59744845  0.47640895  0.65655813    -0.09800
C1121       C  0.59495979  0.50054120  0.69122093     0.29100
C1122       C  0.56093943  0.52345326  0.69883931    -0.21800
C1123       C  0.52883749  0.52326571  0.67205939    -0.09800
C1124       C  0.53114623  0.49872037  0.63782843     0.29100
F1125       F  0.50072076  0.49705424  0.61122075    -0.20300
H1126       H  0.56552416  0.45720386  0.60380551     0.17400
H1127       H  0.56027800  0.54238997  0.72505950     0.17400
F1128       F  0.62536583  0.50227115  0.71786264    -0.20300
C1129       C  0.52736434  0.69370078  0.55496161    -0.21800
C1130       C  0.50783762  0.65663381  0.55936687    -0.09800
C1131       C  0.51222592  0.62805285  0.52899653     0.29100
C1132       C  0.53732661  0.63554396  0.49653716    -0.21800
C1133       C  0.55840815  0.67179823  0.49306526    -0.09800
C1134       C  0.55210422  0.70141383  0.52203833     0.29100
F1135       F  0.57125611  0.73699725  0.51969131    -0.20300
H1136       H  0.52394142  0.71668833  0.57741085     0.17400
H1137       H  0.54110814  0.61224900  0.47445464     0.17400
F1138       F  0.49362934  0.59216098  0.53131558    -0.20300
C1139       C  0.22428655  0.99767397  0.72155057    -0.21800
C1140       C  0.23450664  0.00260639  0.76213193    -0.09800
C1141       C  0.21241126  0.02987581  0.78502119     0.29100
C1142       C  0.18033386  0.05027291  0.76821736    -0.21800
C1143       C  0.16883142  0.04403686  0.72822074    -0.09800
C1144       C  0.19171013  0.01781932  0.70478968     0.29100
F1145       F  0.18219679  0.01082519  0.66600459    -0.20300
H1146       H  0.24031315  0.97663002  0.70314292     0.17400
H1147       H  0.16389086  0.07054444  0.78711758     0.17400
F1148       F  0.22090687  0.03610651  0.82417618    -0.20300
C1149       C  0.35764118  0.02456918  0.98452251    -0.21800
C1150       C  0.33347593  0.05843652  0.98162815    -0.09800
C1151       C  0.30183458  0.05802360  0.95376110     0.29100
C1152       C  0.29483283  0.02458650  0.92969107    -0.21800
C1153       C  0.31950716  0.99123625  0.93217257    -0.09800
C1154       C  0.35096322  0.99142731  0.95992400     0.29100
F1155       F  0.37517423  0.95941619  0.96341551    -0.20300
H1156       H  0.38196264  0.02375961  0.00570265     0.17400
H1157       H  0.27094456  0.02534893  0.90798586     0.17400
F1158       F  0.27791140  0.09009800  0.94906408    -0.20300
C1159       C  0.42642288  0.00226476  0.76545788    -0.21800
C1160       C  0.42722168  0.97305319  0.79567865    -0.09800
C1161       C  0.46162292  0.97040606  0.81960103     0.29100
C1162       C  0.49341405  0.99700465  0.81422665    -0.21800
C1163       C  0.49233020  0.02646695  0.78449955    -0.09800
C1164       C  0.45860207  0.02857823  0.75978214     0.29100
F1165       F  0.45583116  0.05732798  0.73153193    -0.20300
H1166       H  0.40049627  0.00528582  0.74654115     0.17400
H1167       H  0.51905311  0.99469951  0.83366770     0.17400
F1168       F  0.46459051  0.94245929  0.84863306    -0.20300
C1169       C  0.39944412  0.77366205  0.80828029    -0.21800
C1170       C  0.37349246  0.79802714  0.78629492    -0.09800
C1171       C  0.35427418  0.78214063  0.75269041     0.29100
C1172       C  0.36220395  0.74344916  0.74030542    -0.21800
C1173       C  0.39126769  0.72031711  0.75948118    -0.09800
C1174       C  0.40892234  0.73522658  0.79460475     0.29100
F1175       F  0.43726790  0.71409535  0.81394130    -0.20300
H1176       H  0.41379049  0.78512174  0.83492707     0.17400
H1177       H  0.34744441  0.73254141  0.71372463     0.17400
F1178       F  0.32802550  0.80412970  0.73142047    -0.20300
C1179       C  0.22925602  0.79960200  0.90391536    -0.21800
C1180       C  0.26654669  0.81615281  0.91375810    -0.09800
C1181       C  0.28961401  0.79691070  0.94308024     0.29100
C1182       C  0.27477005  0.76309881  0.96296338    -0.21800
C1183       C  0.23669258  0.74774538  0.95416969    -0.09800
C1184       C  0.21447658  0.76603776  0.92372952     0.29100
F1185       F  0.17768120  0.75232910  0.91394596    -0.20300
H1186       H  0.21094508  0.81304318  0.88105852     0.17400
H1187       H  0.29224113  0.75026671  0.98682983     0.17400
F1188       F  0.32586149  0.81144722  0.95363344    -0.20300
C1189       C  0.27218420  0.69007551  0.46957462    -0.21800
C1190       C  0.23547422  0.70621573  0.45762944    -0.09800
C1191       C  0.21624156  0.68954579  0.42420529     0.29100
C1192       C  0.23260604  0.65683692  0.40423010    -0.21800
C1193       C  0.26846384  0.63945910  0.41704235    -0.09800
C1194       C  0.28852703  0.65702996  0.44966713     0.29100
F1195       F  0.32298345  0.64137087  0.46348869    -0.20300
H1196       H  0.28720508  0.70162138  0.49582433     0.17400
H1197       H  0.21660100  0.64464667  0.37888199     0.17400
F1198       F  0.18092690  0.70419094  0.41140993    -0.20300
C1199       C  0.17004024  0.95937474  0.45556740    -0.21800
C1200       C  0.20646130  0.96371013  0.43519537    -0.09800
C1201       C  0.23627899  0.93527298  0.44192801     0.29100
C1202       C  0.22910217  0.90274097  0.46722602    -0.21800
C1203       C  0.19229393  0.89789935  0.48685823    -0.09800
C1204       C  0.16304968  0.92716068  0.48124719     0.29100
F1205       F  0.12716655  0.92413870  0.49951716    -0.20300
H1206       H  0.14650073  0.98080677  0.45119307     0.17400
H1207       H  0.25243189  0.88099307  0.47111545     0.17400
F1208       F  0.27180179  0.93788512  0.42288562    -0.20300
C1209       C  0.03479497  0.81474571  0.46419459    -0.21800
C1210       C  0.06037821  0.78166731  0.46475395    -0.09800
C1211       C  0.06105355  0.75618036  0.43154028     0.29100
C1212       C  0.03767885  0.76460301  0.39798653    -0.21800
C1213       C  0.01292035  0.79842374  0.39689588    -0.09800
C1214       C  0.01114978  0.82298905  0.43087503     0.29100
F1215       F  0.98733275  0.85547058  0.43176617    -0.20300
H1216       H  0.03371496  0.83489322  0.48947788     0.17400
H1217       H  0.03948286  0.74477803  0.37251368     0.17400
F1218       F  0.08589005  0.72448088  0.43052330    -0.20300
C1219       C  0.21367069  0.81421479  0.68370372    -0.21800
C1220       C  0.19652418  0.84407891  0.66033950    -0.09800
C1221       C  0.18764552  0.88106291  0.67745645     0.29100
C1222       C  0.19931721  0.88916926  0.71673005    -0.21800
C1223       C  0.22031813  0.86061702  0.73873888    -0.09800
C1224       C  0.22577725  0.82243551  0.72267595     0.29100
F1225       F  0.24499461  0.79402525  0.74388418    -0.20300
H1226       H  0.21852752  0.78482531  0.67136207     0.17400
H1227       H  0.19517253  0.91883822  0.72864868     0.17400
F1228       F  0.16983195  0.90985531  0.65554541    -0.20300
C1229       C  0.32703201  0.70454389  0.62827930    -0.21800
C1230       C  0.33726415  0.66759382  0.61239606    -0.09800
C1231       C  0.30832920  0.64522316  0.59159488     0.29100
C1232       C  0.27044956  0.66138720  0.58459062    -0.21800
C1233       C  0.26069179  0.69923873  0.59968996    -0.09800
C1234       C  0.28915290  0.71972291  0.62322858     0.29100
F1235       F  0.28140903  0.75572784  0.63989967    -0.20300
H1236       H  0.34858304  0.72188268  0.64499547     0.17400
H1237       H  0.24952391  0.64516353  0.56601198     0.17400
F1238       F  0.31727812  0.60884022  0.57646670    -0.20300
C1239       C  0.06542435  0.67314950  0.68563186    -0.21800
C1240       C  0.03806197  0.69628412  0.70708699    -0.09800
C1241       C  0.03220830  0.73608424  0.69504416     0.29100
C1242       C  0.05236749  0.75154449  0.66158111    -0.21800
C1243       C  0.07878860  0.72780803  0.63935256    -0.09800
C1244       C  0.08548710  0.68844467  0.65242769     0.29100
F1245       F  0.11080053  0.66399624  0.63267725    -0.20300
H1246       H  0.07044622  0.64238871  0.69378383     0.17400
H1247       H  0.04683240  0.78200648  0.65274329     0.17400
F1248       F  0.00557521  0.75952435  0.71424973    -0.20300
loop_ 
_geom_bond_atom_site_label_1 
_geom_bond_atom_site_label_2 
_geom_bond_distance 
_geom_bond_site_symmetry_2 
_ccdc_geom_bond_type 
O1           C16   1.253       .  A
O1           Al9   1.852       .  S
C2           O12   1.255       .  A
C2            O3   1.273       .  A
C2         C1210   1.482       .  S
O3           Al5   1.960       .  S
O4            C6   1.260       .  A
O4           Al5   1.893       .  S
Al5          O13   1.887       .  S
Al5          O15   1.982       .  S
Al5          O14   1.777       .  S
C6           O19   1.269       .  A
C6         C1190   1.490       .  S
O7           C17   1.264       .  A
O7           Al9   1.886       .  S
O8           C21   1.249       .  A
O8          Al18   1.863       .  S
Al9          O22   1.934       .  S
Al9          O19   1.961       .  S
Al9          O14   1.772       .  S
O10          C17   1.276       .  A
O10         Al18   1.964       .  S
O11          C20   1.270       .  A
O11         Al18   1.952       .  S
O12         Al18   1.855       .  S
O13          C20   1.259       .  A
O14         Al18   1.780       .  S
O15          C16   1.274       .  A
C16        C1233   1.484       .  S
C17        C1203   1.495       .  S
C20        C1243   1.499       .  S
C21          O22   1.265       .  A
C21        C1220   1.458       .  S
O23          C38   1.256       .  A
O23         Al31   1.872       .  S
C24          O34   1.257       .  A
C24          O25   1.269       .  A
C24        C1153   1.478       .  S
O25         Al27   1.939       .  S
O26          C28   1.262       .  A
O26         Al27   1.898       .  S
Al27         O35   1.891       .  S
Al27         O37   1.944       .  S
Al27         O36   1.780       .  S
C28          O41   1.268       .  A
C28        C1140   1.496   1_565  S
O29          C39   1.265       .  A
O29         Al31   1.901       .  S
O30          C43   1.253       .  A
O30         Al40   1.880       .  S
Al31         O44   1.933       .  S
Al31         O41   1.953       .  S
Al31         O36   1.776       .  S
O32          C39   1.273       .  A
O32         Al40   1.949       .  S
O33          C42   1.267       .  A
O33         Al40   1.940       .  S
O34         Al40   1.872       .  S
O35          C42   1.260       .  A
O36         Al40   1.785       .  S
O37          C38   1.267       .  A
C38        C1223   1.461       .  S
C39        C1160   1.498       .  S
C42        C1180   1.495       .  S
C43          O44   1.266       .  A
C43        C1170   1.476       .  S
O45          C60   1.255       .  A
O45         Al53   1.852       .  S
C46          O56   1.256       .  A
C46          O47   1.274       .  A
C46        C1123   1.491       .  S
O47         Al49   1.962       .  S
O48          C50   1.257       .  A
O48         Al49   1.889       .  S
Al49         O57   1.886       .  S
Al49         O59   1.985       .  S
Al49         O58   1.776       .  S
C50          O63   1.266       .  A
C50        C1100   1.494       .  S
O51          C61   1.265       .  A
O51         Al53   1.885       .  S
O52          C65   1.253       .  A
O52         Al62   1.883       .  S
Al53         O66   1.928       .  S
Al53         O63   1.959       .  S
Al53         O58   1.775       .  S
O54          C61   1.278       .  A
O54         Al62   1.966       .  S
O55          C64   1.269       .  A
O55         Al62   1.955       .  S
O56         Al62   1.866       .  S
O57          C64   1.258       .  A
O58         Al62   1.783       .  S
O59          C60   1.276       .  A
C60        C1173   1.482       .  S
C61        C1130   1.492       .  S
C64        C1110   1.502       .  S
C65          O66   1.265       .  A
C65        C1230   1.471       .  S
O67          C82   1.255       .  A
O67         Al75   1.852       .  S
C68          O78   1.256       .  A
C68          O69   1.273       .  A
C68        C1050   1.482       .  S
O69         Al71   1.955       .  S
O70          C72   1.261       .  A
O70         Al71   1.898       .  S
Al71         O79   1.893       .  S
Al71         O81   1.967       .  S
Al71         O80   1.779       .  S
C72          O85   1.269       .  A
C72        C1043   1.498       .  S
O73          C83   1.264       .  A
O73         Al75   1.893       .  S
O74          C87   1.253       .  A
O74         Al84   1.876       .  S
Al75         O88   1.936       .  S
Al75         O85   1.958       .  S
Al75         O80   1.770       .  S
O76          C83   1.275       .  A
O76         Al84   1.962       .  S
O77          C86   1.268       .  A
O77         Al84   1.951       .  S
O78         Al84   1.857       .  S
O79          C86   1.259       .  A
O80         Al84   1.783       .  S
O81          C82   1.271       .  A
C82        C1080   1.474       .  S
C83        C1060   1.497       .  S
C86        C1090   1.502       .  S
C87          O88   1.268       .  A
C87        C1073   1.474       .  S
O89         C104   1.250       .  A
O89         Al97   1.855       .  S
C90         O100   1.257       .  A
C90          O91   1.276       .  A
C90        C1133   1.491       .  S
O91         Al93   1.973       .  S
O92          C94   1.260       .  A
O92         Al93   1.891       .  S
Al93        O101   1.886       .  S
Al93        O103   1.999       .  S
Al93        O102   1.778       .  S
C94         O107   1.271       .  A
C94        C1000   1.490       .  S
O95         C105   1.260       .  A
O95         Al97   1.877       .  S
O96         C109   1.252       .  A
O96        Al106   1.869       .  S
Al97        O110   1.937       .  S
Al97        O107   1.965       .  S
Al97        O102   1.762       .  S
O98         C105   1.275       .  A
O98        Al106   1.964       .  S
O99         C108   1.271       .  A
O99        Al106   1.949       .  S
O100       Al106   1.861       .  S
O101        C108   1.261       .  A
O102       Al106   1.778       .  S
O103        C104   1.275       .  A
C104       C1010   1.485       .  S
C105       C1030   1.491       .  S
C108       C1020   1.493       .  S
C109        O110   1.267       .  A
C109       C1083   1.468       .  S
O111        C126   1.253       .  A
O111       Al119   1.842       .  S
C112        O122   1.257       .  A
C112        O113   1.275       .  A
C112        C980   1.490   1_655  S
O113       Al115   1.968       .  S
O114        C116   1.257       .  A
O114       Al115   1.880   1_455  S
Al115       O123   1.877       .  S
Al115       O125   1.993       .  S
Al115       O124   1.773       .  S
C116        O129   1.269   1_455  A
C116        C970   1.488       .  S
O117        C127   1.261       .  A
O117       Al119   1.873       .  S
O118        C131   1.255       .  A
O118       Al128   1.891       .  S
Al119       O132   1.937       .  S
Al119       O129   1.960       .  S
Al119       O124   1.764       .  S
O120        C127   1.277       .  A
O120       Al128   1.968       .  S
O121        C130   1.268       .  A
O121       Al128   1.939       .  S
O122       Al128   1.866       .  S
O123        C130   1.257       .  A
O124       Al128   1.772       .  S
O125        C126   1.276       .  A
C126       C1070   1.484       .  S
C127       C1213   1.489   1_655  S
C130        C990   1.487       .  S
C131        O132   1.268       .  A
C131       C1013   1.485       .  S
O133        C148   1.249       .  A
O133       Al141   1.843       .  S
C134        O144   1.258       .  A
C134        O135   1.271       .  A
C134       C1163   1.489       .  S
O135       Al137   1.955       .  S
O136        C138   1.259       .  A
O136       Al137   1.888       .  S
Al137       O145   1.884       .  S
Al137       O147   1.983       .  S
Al137       O146   1.777       .  S
C138        O151   1.271       .  A
C138        C923   1.491       .  S
O139        C149   1.260       .  A
O139       Al141   1.869       .  S
O140        C153   1.251       .  A
O140       Al150   1.879       .  S
Al141       O154   1.939       .  S
Al141       O151   1.973       .  S
Al141       O146   1.770       .  S
O142        C149   1.278       .  A
O142       Al150   1.971       .  S
O143        C152   1.273       .  A
O143       Al150   1.958       .  S
O144       Al150   1.881       .  S
O145        C152   1.260       .  A
O146       Al150   1.778       .  S
O147        C148   1.273       .  A
C148        C950   1.481       .  S
C149        C930   1.490       .  S
C152        C963   1.500       .  S
C153        O154   1.266       .  A
C153        C940   1.471       .  S
O155        C170   1.257       .  A
O155       Al163   1.868       .  S
C156        O166   1.256       .  A
C156        O157   1.270       .  A
C156        C890   1.483       .  S
O157       Al159   1.942       .  S
O158        C160   1.260       .  A
O158       Al159   1.891       .  S
Al159       O167   1.886       .  S
Al159       O169   1.962       .  S
Al159       O168   1.774       .  S
C160        O173   1.264       .  A
C160        C880   1.485   1_556  S
O161        C171   1.261       .  A
O161       Al163   1.880       .  S
O162        C175   1.252       .  A
O162       Al172   1.871       .  S
Al163       O176   1.920       .  S
Al163       O173   1.935       .  S
Al163       O168   1.776       .  S
O164        C171   1.274       .  A
O164       Al172   1.950       .  S
O165        C174   1.269       .  A
O165       Al172   1.947       .  S
O166       Al172   1.871       .  S
O167        C174   1.260       .  A
O168       Al172   1.782       .  S
O169        C170   1.270       .  A
C170        C943   1.471       .  S
C171       C1053   1.486       .  S
C174        C910   1.497       .  S
C175        O176   1.264       .  A
C175        C900   1.466       .  S
O177        C192   1.256       .  A
O177       Al185   1.850       .  S
C178        O188   1.256       .  A
C178        O179   1.273       .  A
C178       C1033   1.481       .  S
O179       Al181   1.954       .  S
O180        C182   1.259       .  A
O180       Al181   1.897       .  S
Al181       O189   1.883       .  S
Al181       O191   1.970       .  S
Al181       O190   1.775       .  S
C182        O195   1.264       .  A
C182        C860   1.491       .  S
O183        C193   1.264       .  A
O183       Al185   1.881       .  S
O184        C197   1.251       .  A
O184       Al194   1.877       .  S
Al185       O198   1.922       .  S
Al185       O195   1.948       .  S
Al185       O190   1.773       .  S
O186        C193   1.280       .  A
O186       Al194   1.973       .  S
O187        C196   1.269       .  A
O187       Al194   1.952       .  S
O188       Al194   1.859       .  S
O189        C196   1.257       .  A
O190       Al194   1.783       .  S
O191        C192   1.274       .  A
C192        C903   1.475       .  S
C193       C1120   1.495       .  S
C196        C870   1.501       .  S
C197        O198   1.263       .  A
C197        C953   1.468       .  S
O199        C214   1.248       .  A
O199       Al207   1.842       .  S
C200        O210   1.256       .  A
C200        O201   1.273       .  A
C200        C933   1.477   1_554  S
O201       Al203   1.959       .  S
O202        C204   1.259       .  A
O202       Al203   1.883   1_556  S
Al203       O211   1.883       .  S
Al203       O213   1.986       .  S
Al203       O212   1.776       .  S
C204        O217   1.272   1_556  A
C204        C820   1.496       .  S
O205        C215   1.260       .  A
O205       Al207   1.877       .  S
O206        C219   1.250       .  A
O206       Al216   1.866       .  S
Al207       O220   1.944       .  S
Al207       O217   1.971       .  S
Al207       O212   1.765       .  S
O208        C215   1.274       .  A
O208       Al216   1.956       .  S
O209        C218   1.269       .  A
O209       Al216   1.945       .  S
O210       Al216   1.859       .  S
O211        C218   1.261       .  A
O212       Al216   1.781       .  S
O213        C214   1.272       .  A
C214        C830   1.486       .  S
C215       C1150   1.489   1_554  S
C218        C850   1.492       .  S
C219        O220   1.269       .  A
C219        C840   1.469       .  S
O221        C236   1.257       .  A
O221       Al229   1.859       .  S
C222        O232   1.257       .  A
C222        O223   1.275       .  A
C222       C1063   1.492   1_455  S
O223       Al225   1.967       .  S
O224        C226   1.257       .  A
O224       Al225   1.892       .  S
Al225       O233   1.887       .  S
Al225       O235   1.989       .  S
Al225       O234   1.771       .  S
C226        O239   1.264       .  A
C226        C790   1.491   1_455  S
O227        C237   1.264       .  A
O227       Al229   1.877       .  S
O228        C241   1.254       .  A
O228       Al238   1.891       .  S
Al229       O242   1.924       .  S
Al229       O239   1.950       .  S
Al229       O234   1.773       .  S
O230        C237   1.277       .  A
O230       Al238   1.965       .  S
O231        C240   1.266       .  A
O231       Al238   1.940       .  S
O232       Al238   1.866       .  S
O233        C240   1.258       .  A
O234       Al238   1.785       .  S
O235        C236   1.279       .  A
C236        C800   1.486       .  S
C237        C893   1.488       .  S
C240        C813   1.497       .  S
C241        O242   1.265       .  A
C241        C833   1.477       .  S
O243        C258   1.254       .  A
O243       Al251   1.855       .  S
C244        O254   1.259   1_565  A
C244        O245   1.271   1_565  A
C244       C1200   1.493       .  S
O245       Al247   1.951       .  S
O246        C248   1.260       .  A
O246       Al247   1.889   1_565  S
Al247       O255   1.883       .  S
Al247       O257   1.969       .  S
Al247       O256   1.780       .  S
C248        O261   1.271   1_565  A
C248        C770   1.497       .  S
O249        C259   1.262       .  A
O249       Al251   1.884       .  S
O250        C263   1.254       .  A
O250       Al260   1.890       .  S
Al251       O264   1.935       .  S
Al251       O261   1.966       .  S
Al251       O256   1.773       .  S
O252        C259   1.276       .  A
O252       Al260   1.961       .  S
O253        C262   1.271       .  A
O253       Al260   1.952       .  S
O254       Al260   1.883       .  S
O255        C262   1.259       .  A
O256       Al260   1.780       .  S
O257        C258   1.270       .  A
C258        C843   1.469       .  S
C259        C983   1.495   1_545  S
C262        C780   1.497       .  S
C263        O264   1.266       .  A
C263        C803   1.481       .  S
O265        C280   1.266       .  A
O265       Al273   1.931       .  S
C266        O276   1.271       .  A
C266        O267   1.259       .  A
C266        C740   1.487   1_455  S
O267       Al269   1.874       .  S
O268        C270   1.275       .  A
O268       Al269   1.958       .  S
Al269       O277   1.945       .  S
Al269       O279   1.888       .  S
Al269       O278   1.782       .  S
C270        O283   1.263       .  A
C270        C730   1.489       .  S
O271        C281   1.265       .  A
O271       Al273   1.948       .  S
O272        C285   1.272       .  A
O272       Al282   1.960       .  S
Al273       O286   1.854       .  S
Al273       O283   1.883       .  S
Al273       O278   1.774       .  S
O274        C281   1.259       .  A
O274       Al282   1.896       .  S
O275        C284   1.258       .  A
O275       Al282   1.885       .  S
O276       Al282   1.945       .  S
O277        C284   1.267       .  A
O278       Al282   1.776       .  S
O279        C280   1.255       .  A
C280        C760   1.479       .  S
C281        C913   1.494   1_455  S
C284       C1143   1.497       .  S
C285        O286   1.257       .  A
C285        C750   1.470       .  S
O287        C302   1.266       .  A
O287       Al295   1.930       .  S
C288        O298   1.272       .  A
C288        O289   1.257       .  A
C288        C700   1.485       .  S
O289       Al291   1.866       .  S
O290        C292   1.276       .  A
O290       Al291   1.965       .  S
Al291       O299   1.953       .  S
Al291       O301   1.876       .  S
Al291       O300   1.779       .  S
C292        O305   1.263       .  A
C292        C710   1.496       .  S
O293        C303   1.271       .  A
O293       Al295   1.969       .  S
O294        C307   1.269       .  A
O294       Al304   1.971       .  S
Al295       O308   1.854       .  S
Al295       O305   1.883       .  S
Al295       O300   1.767       .  S
O296        C303   1.262       .  A
O296       Al304   1.894       .  S
O297        C306   1.260       .  A
O297       Al304   1.884       .  S
O298       Al304   1.951       .  S
O299        C306   1.270       .  A
O300       Al304   1.780       .  S
O301        C302   1.252       .  A
C302        C753   1.468       .  S
C303       C1113   1.500       .  S
C306        C823   1.496       .  S
C307        O308   1.250       .  A
C307        C720   1.466       .  S
O309        C324   1.267       .  A
O309       Al317   1.930       .  S
C310        O320   1.276       .  A
C310        O311   1.256       .  A
C310        C693   1.480       .  S
O311       Al313   1.851       .  S
O312        C314   1.275       .  A
O312       Al313   1.962       .  S
Al313       O321   1.944       .  S
Al313       O323   1.870       .  S
Al313       O322   1.777       .  S
C314        O327   1.262       .  A
C314        C680   1.488       .  S
O315        C325   1.268       .  A
O315       Al317   1.956       .  S
O316        C329   1.276       .  A
O316       Al326   1.987       .  S
Al317       O330   1.851       .  S
Al317       O327   1.879       .  S
Al317       O322   1.765       .  S
O318        C325   1.259       .  A
O318       Al326   1.893       .  S
O319        C328   1.261       .  A
O319       Al326   1.899       .  S
O320       Al326   1.967       .  S
O321        C328   1.267       .  A
O322       Al326   1.771       .  S
O323        C324   1.253       .  A
C324        C723   1.471       .  S
C325        C783   1.489       .  S
C328        C920   1.498       .  S
C329        O330   1.253       .  A
C329        C763   1.487       .  S
O331        C346   1.263       .  A
O331       Al339   1.923       .  S
C332        O342   1.268   1_565  A
C332        O333   1.257   1_565  A
C332        C650   1.482       .  S
O333       Al335   1.869       .  S
O334        C336   1.275       .  A
O334       Al335   1.954       .  S
Al335       O343   1.939       .  S
Al335       O345   1.883       .  S
Al335       O344   1.779       .  S
C336        O349   1.262   1_545  A
C336        C640   1.487   1_545  S
O337        C347   1.265       .  A
O337       Al339   1.934   1_565  S
O338        C351   1.270       .  A
O338       Al348   1.956       .  S
Al339       O352   1.858       .  S
Al339       O349   1.878   1_545  S
Al339       O344   1.769       .  S
O340        C347   1.259       .  A
O340       Al348   1.894   1_565  S
O341        C350   1.255       .  A
O341       Al348   1.867       .  S
O342       Al348   1.938       .  S
O343        C350   1.268       .  A
O344       Al348   1.780       .  S
O345        C346   1.252       .  A
C346        C673   1.472       .  S
C347        C993   1.482       .  S
C350        C883   1.487       .  S
C351        O352   1.257       .  A
C351        C660   1.465       .  S
O353        C368   1.264       .  A
O353       Al361   1.926       .  S
C354        O364   1.267       .  A
C354        O355   1.253       .  A
C354        C733   1.474       .  S
O355       Al357   1.862       .  S
O356        C358   1.274       .  A
O356       Al357   1.953       .  S
Al357       O365   1.950       .  S
Al357       O367   1.862       .  S
Al357       O366   1.787       .  S
C358        O371   1.262       .  A
C358        C620   1.491       .  S
O359        C369   1.270       .  A
O359       Al361   1.963       .  S
O360        C373   1.268       .  A
O360       Al370   1.954       .  S
Al361       O374   1.876       .  S
Al361       O371   1.885       .  S
Al361       O366   1.778       .  S
O362        C369   1.262       .  A
O362       Al370   1.892       .  S
O363        C372   1.260       .  A
O363       Al370   1.888       .  S
O364       Al370   1.941       .  S
O365        C372   1.271       .  A
O366       Al370   1.777       .  S
O367        C368   1.248       .  A
C368        C663   1.461       .  S
C369        C873   1.495       .  S
C372        C793   1.498       .  S
C373        O374   1.256       .  A
C373        C630   1.469       .  S
O375        C390   1.265       .  A
O375       Al383   1.936       .  S
C376        O386   1.275       .  A
C376        O377   1.257       .  A
C376        C613   1.494       .  S
O377       Al379   1.867       .  S
O378        C380   1.277       .  A
O378       Al379   1.962       .  S
Al379       O387   1.956       .  S
Al379       O389   1.873       .  S
Al379       O388   1.776       .  S
C380        O393   1.262       .  A
C380        C690   1.489       .  S
O381        C391   1.267       .  A
O381       Al383   1.960       .  S
O382        C395   1.277       .  A
O382       Al392   1.990       .  S
Al383       O396   1.842       .  S
Al383       O393   1.877       .  S
Al383       O388   1.775       .  S
O384        C391   1.257       .  A
O384       Al392   1.883       .  S
O385        C394   1.259       .  A
O385       Al392   1.886       .  S
O386       Al392   1.969       .  S
O387        C394   1.271       .  A
O388       Al392   1.773       .  S
O389        C390   1.252       .  A
C390        C633   1.462       .  S
C391        C853   1.488       .  S
C394       C1040   1.501       .  S
C395        O396   1.253       .  A
C395        C670   1.483       .  S
O397        C412   1.266       .  A
O397       Al405   1.932       .  S
C398        O408   1.273   1_556  A
C398        O399   1.256   1_556  A
C398        C580   1.487       .  S
O399       Al401   1.865       .  S
O400        C402   1.274       .  A
O400       Al401   1.950       .  S
Al401       O409   1.944       .  S
Al401       O411   1.876       .  S
Al401       O410   1.776       .  S
C402        O415   1.262       .  A
C402        C703   1.486   1_554  S
O403        C413   1.271   1_554  A
O403       Al405   1.969       .  S
O404        C417   1.272       .  A
O404       Al414   1.984       .  S
Al405       O418   1.858       .  S
Al405       O415   1.880       .  S
Al405       O410   1.768       .  S
O406        C413   1.259       .  A
O406       Al414   1.886   1_556  S
O407        C416   1.260       .  A
O407       Al414   1.880       .  S
O408       Al414   1.959       .  S
O409        C416   1.270       .  A
O410       Al414   1.778       .  S
O411        C412   1.252       .  A
C412        C600   1.467       .  S
C413       C1183   1.490       .  S
C416        C973   1.490       .  S
C417        O418   1.252       .  A
C417        C590   1.474       .  S
O419        C434   1.264       .  A
O419       Al427   1.924       .  S
C420        O430   1.272       .  A
C420        O421   1.255       .  A
C420        C643   1.481       .  S
O421       Al423   1.854       .  S
O422        C424   1.277       .  A
O422       Al423   1.964       .  S
Al423       O431   1.939       .  S
Al423       O433   1.883       .  S
Al423       O432   1.778       .  S
C424        O437   1.262       .  A
C424        C560   1.484       .  S
O425        C435   1.264       .  A
O425       Al427   1.941       .  S
O426        C439   1.275       .  A
O426       Al436   1.975       .  S
Al427       O440   1.850       .  S
Al427       O437   1.874       .  S
Al427       O432   1.771       .  S
O428        C435   1.259       .  A
O428       Al436   1.900       .  S
O429        C438   1.260       .  A
O429       Al436   1.893       .  S
O430       Al436   1.955       .  S
O431        C438   1.267       .  A
O432       Al436   1.776       .  S
O433        C434   1.253       .  A
C434        C593   1.477       .  S
C435       C1023   1.484       .  S
C438        C773   1.497       .  S
C439        O440   1.255       .  A
C439        C570   1.480       .  S
O441        C456   1.265       .  A
O441       Al449   1.925       .  S
C442        O452   1.271       .  A
C442        O443   1.256       .  A
C442        C683   1.481       .  S
O443       Al445   1.861       .  S
O444        C446   1.277       .  A
O444       Al445   1.966       .  S
Al445       O453   1.951       .  S
Al445       O455   1.879       .  S
Al445       O454   1.783       .  S
C446        O459   1.263       .  A
C446        C610   1.496       .  S
O447        C457   1.267       .  A
O447       Al449   1.950       .  S
O448        C461   1.272       .  A
O448       Al458   1.965       .  S
Al449       O462   1.866       .  S
Al449       O459   1.886       .  S
Al449       O454   1.775       .  S
O450        C457   1.260       .  A
O450       Al458   1.895       .  S
O451        C460   1.259       .  A
O451       Al458   1.887       .  S
O452       Al458   1.951       .  S
O453        C460   1.269       .  A
O454       Al458   1.777       .  S
O455        C456   1.252       .  A
C456        C573   1.471       .  S
C457        C810   1.492       .  S
C460       C1193   1.497       .  S
C461        O462   1.257       .  A
C461        C603   1.473       .  S
O463        C478   1.265       .  A
O463       Al471   1.936       .  S
C464        O474   1.274       .  A
C464        O465   1.253       .  A
C464        C563   1.486       .  S
O465       Al467   1.848       .  S
O466        C468   1.275       .  A
O466       Al467   1.953       .  S
Al467       O475   1.949       .  S
Al467       O477   1.863       .  S
Al467       O476   1.775       .  S
C468        O481   1.263       .  A
C468        C653   1.485       .  S
O469        C479   1.271       .  A
O469       Al471   1.974       .  S
O470        C483   1.275       .  A
O470       Al480   1.991       .  S
Al471       O484   1.851       .  S
Al471       O481   1.878       .  S
Al471       O476   1.766       .  S
O472        C479   1.260       .  A
O472       Al480   1.892       .  S
O473        C482   1.260       .  A
O473       Al480   1.886       .  S
O474       Al480   1.966       .  S
O475        C482   1.270       .  A
O476       Al480   1.776       .  S
O477        C478   1.249       .  A
C478        C540   1.457       .  S
C479       C1093   1.495   1_556  S
C482       C1103   1.498       .  S
C483        O484   1.252       .  A
C483        C550   1.485       .  S
O485        C500   1.266       .  A
O485       Al493   1.936       .  S
C486        O496   1.271       .  A
C486        O487   1.258       .  A
C486        C623   1.496       .  S
O487       Al489   1.881       .  S
O488        C490   1.271       .  A
O488       Al489   1.940       .  S
Al489       O497   1.939       .  S
Al489       O499   1.889       .  S
Al489       O498   1.784       .  S
C490        O503   1.264       .  A
C490        C743   1.488       .  S
O491        C501   1.268       .  A
O491       Al493   1.955       .  S
O492        C505   1.268       .  A
O492       Al502   1.950       .  S
Al493       O506   1.861       .  S
Al493       O503   1.894       .  S
Al493       O498   1.776       .  S
O494        C501   1.263       .  A
O494       Al502   1.902       .  S
O495        C504   1.259       .  A
O495       Al502   1.893       .  S
O496       Al502   1.951       .  S
O497        C504   1.267       .  A
O498       Al502   1.782       .  S
O499        C500   1.255       .  A
C500        C530   1.480       .  S
C501        C960   1.501   1_565  S
C504       C1003   1.496       .  S
C505        O506   1.255       .  A
C505        C543   1.460       .  S
O507        C522   1.265       .  A
O507       Al515   1.929       .  S
C508        O518   1.274       .  A
C508        O509   1.257       .  A
C508        C713   1.489   1_655  S
O509       Al511   1.870       .  S
O510        C512   1.278       .  A
O510       Al511   1.968       .  S
Al511       O519   1.951       .  S
Al511       O521   1.886       .  S
Al511       O520   1.783       .  S
C512        O525   1.264       .  A
C512        C583   1.491   1_655  S
O513        C523   1.267   1_655  A
O513       Al515   1.960       .  S
O514        C527   1.277       .  A
O514       Al524   1.989       .  S
Al515       O528   1.860       .  S
Al515       O525   1.880       .  S
Al515       O520   1.775       .  S
O516        C523   1.257       .  A
O516       Al524   1.889   1_455  S
O517        C526   1.257       .  A
O517       Al524   1.879       .  S
O518       Al524   1.962       .  S
O519        C526   1.269       .  A
O520       Al524   1.771       .  S
O521        C522   1.254       .  A
C522        C553   1.476       .  S
C523       C1240   1.494       .  S
C526        C863   1.498       .  S
C527        O528   1.256       .  A
C527        C533   1.485       .  S
C529        C530   1.408       .  A
C529        C534   1.408       .  A
C529        H536   1.083       .  S
C530        C531   1.402       .  A
C531        C532   1.394       .  A
C531        F538   1.357       .  S
C532        C533   1.409       .  A
C532        H537   1.082       .  S
C533        C534   1.408       .  A
C534        F535   1.357       .  S
C539        C540   1.398       .  A
C539        C544   1.392       .  A
C539        H546   1.084       .  S
C540        C541   1.403       .  A
C541        C542   1.400       .  A
C541        F548   1.358       .  S
C542        C543   1.405       .  A
C542        H547   1.083       .  S
C543        C544   1.403       .  A
C544        F545   1.357       .  S
C549        C550   1.410       .  A
C549        C554   1.384       .  A
C549        H556   1.083       .  S
C550        C551   1.407       .  A
C551        C552   1.409       .  A
C551        F558   1.357       .  S
C552        C553   1.411       .  A
C552        H557   1.083       .  S
C553        C554   1.399       .  A
C554        F555   1.357       .  S
C559        C560   1.412       .  A
C559        C564   1.402       .  A
C559        H566   1.083       .  S
C560        C561   1.402       .  A
C561        C562   1.397       .  A
C561        F568   1.358       .  S
C562        C563   1.412   1_554  A
C562        H567   1.083   1_554  S
C563        C564   1.404   1_556  A
C564        F565   1.357       .  S
C569        C570   1.406       .  A
C569        C574   1.405       .  A
C569        H576   1.083       .  S
C570        C571   1.412       .  A
C571        C572   1.387       .  A
C571        F578   1.359       .  S
C572        C573   1.396       .  A
C572        H577   1.083       .  S
C573        C574   1.409       .  A
C574        F575   1.357       .  S
C579        C580   1.410       .  A
C579        C584   1.400       .  A
C579        H586   1.083       .  S
C580        C581   1.405       .  A
C581        C582   1.404       .  A
C581        F588   1.357       .  S
C582        C583   1.412       .  A
C582        H587   1.083       .  S
C583        C584   1.405       .  A
C584        F585   1.357   1_455  S
C589        C590   1.406       .  A
C589        C594   1.383       .  A
C589        H596   1.084       .  S
C590        C591   1.401       .  A
C591        C592   1.407       .  A
C591        F598   1.357       .  S
C592        C593   1.414       .  A
C592        H597   1.084       .  S
C593        C594   1.402       .  A
C594        F595   1.358       .  S
C599        C600   1.399       .  A
C599        C604   1.393       .  A
C599        H606   1.083       .  S
C600        C601   1.405       .  A
C601        C602   1.404       .  A
C601        F608   1.357       .  S
C602        C603   1.406       .  A
C602        H607   1.082       .  S
C603        C604   1.406       .  A
C604        F605   1.357       .  S
C609        C610   1.413       .  A
C609        C614   1.406       .  A
C609        H616   1.083       .  S
C610        C611   1.406       .  A
C611        C612   1.402       .  A
C611        F618   1.357       .  S
C612        C613   1.411       .  A
C612        H617   1.083       .  S
C613        C614   1.406       .  A
C614        F615   1.357       .  S
C619        C620   1.403       .  A
C619        C624   1.403       .  A
C619        H626   1.083       .  S
C620        C621   1.412       .  A
C621        C622   1.403       .  A
C621        F628   1.357       .  S
C622        C623   1.405   1_545  A
C622        H627   1.083       .  S
C623        C624   1.416   1_565  A
C624        F625   1.358   1_545  S
C629        C630   1.406       .  A
C629        C634   1.401       .  A
C629        H636   1.082       .  S
C630        C631   1.404       .  A
C631        C632   1.394       .  A
C631        F638   1.356       .  S
C632        C633   1.399       .  A
C632        H637   1.081       .  S
C633        C634   1.402       .  A
C634        F635   1.357       .  S
C639        C640   1.412       .  A
C639        C644   1.403       .  A
C639        H646   1.083       .  S
C640        C641   1.406       .  A
C641        C642   1.396       .  A
C641        F648   1.357   1_565  S
C642        C643   1.408       .  A
C642        H647   1.084       .  S
C643        C644   1.404       .  A
C644        F645   1.357       .  S
C649        C650   1.408       .  A
C649        C654   1.397   1_554  A
C649        H656   1.083       .  S
C650        C651   1.405       .  A
C651        C652   1.400   1_554  A
C651        F658   1.358       .  S
C652        C653   1.410       .  A
C652        H657   1.083       .  S
C653        C654   1.406       .  A
C654        F655   1.357       .  S
C659        C660   1.404       .  A
C659        C664   1.401       .  A
C659        H666   1.083       .  S
C660        C661   1.405       .  A
C661        C662   1.389       .  A
C661        F668   1.357       .  S
C662        C663   1.397       .  A
C662        H667   1.081       .  S
C663        C664   1.406       .  A
C664        F665   1.357       .  S
C669        C670   1.410       .  A
C669        C674   1.386       .  A
C669        H676   1.081       .  S
C670        C671   1.407       .  A
C671        C672   1.407       .  A
C671        F678   1.357       .  S
C672        C673   1.409       .  A
C672        H677   1.083       .  S
C673        C674   1.399       .  A
C674        F675   1.358       .  S
C679        C680   1.411       .  A
C679        C684   1.401       .  A
C679        H686   1.083       .  S
C680        C681   1.407       .  A
C681        C682   1.399       .  A
C681        F688   1.357       .  S
C682        C683   1.408       .  A
C682        H687   1.084       .  S
C683        C684   1.403       .  A
C684        F685   1.357       .  S
C689        C690   1.413       .  A
C689        C694   1.403       .  A
C689        H696   1.083       .  S
C690        C691   1.405       .  A
C691        C692   1.397       .  A
C691        F698   1.357       .  S
C692        C693   1.408       .  A
C692        H697   1.084       .  S
C693        C694   1.403       .  A
C694        F695   1.358       .  S
C699        C700   1.403       .  A
C699        C704   1.402       .  A
C699        H706   1.083       .  S
C700        C701   1.412       .  A
C701        C702   1.397       .  A
C701        F708   1.358       .  S
C702        C703   1.402       .  A
C702        H707   1.083       .  S
C703        C704   1.413       .  A
C704        F705   1.357       .  S
C709        C710   1.413       .  A
C709        C714   1.404       .  A
C709        H716   1.083       .  S
C710        C711   1.408       .  A
C711        C712   1.403       .  A
C711        F718   1.357       .  S
C712        C713   1.410       .  A
C712        H717   1.083       .  S
C713        C714   1.404       .  A
C714        F715   1.357       .  S
C719        C720   1.406       .  A
C719        C724   1.382       .  A
C719        H726   1.083       .  S
C720        C721   1.398       .  A
C721        C722   1.403       .  A
C721        F728   1.357       .  S
C722        C723   1.414       .  A
C722        H727   1.083       .  S
C723        C724   1.399       .  A
C724        F725   1.358       .  S
C729        C730   1.411   1_655  A
C729        C734   1.399       .  A
C729        H736   1.083       .  S
C730        C731   1.409       .  A
C731        C732   1.400   1_455  A
C731        F738   1.357       .  S
C732        C733   1.405       .  A
C732        H737   1.084       .  S
C733        C734   1.401       .  A
C734        F735   1.358       .  S
C739        C740   1.405       .  A
C739        C744   1.403   1_545  A
C739        H746   1.083       .  S
C740        C741   1.411   1_545  A
C741        C742   1.399       .  A
C741        F748   1.358   1_665  S
C742        C743   1.404       .  A
C742        H747   1.083       .  S
C743        C744   1.411       .  A
C744        F745   1.357       .  S
C749        C750   1.404       .  A
C749        C754   1.389       .  A
C749        H756   1.084       .  S
C750        C751   1.407       .  A
C751        C752   1.403       .  A
C751        F758   1.357       .  S
C752        C753   1.405       .  A
C752        H757   1.083       .  S
C753        C754   1.402       .  A
C754        F755   1.356       .  S
C759        C760   1.410       .  A
C759        C764   1.407       .  A
C759        H766   1.083       .  S
C760        C761   1.402       .  A
C761        C762   1.389       .  A
C761        F768   1.358       .  S
C762        C763   1.411       .  A
C762        H767   1.083       .  S
C763        C764   1.407       .  A
C764        F765   1.357       .  S
C769        C770   1.410       .  A
C769        C774   1.408       .  A
C769        H776   1.083       .  S
C770        C771   1.411       .  A
C771        C772   1.400       .  A
C771        F778   1.358       .  S
C772        C773   1.407       .  A
C772        H777   1.083       .  S
C773        C774   1.411       .  A
C774        F775   1.357       .  S
C779        C780   1.407       .  A
C779        C784   1.406       .  A
C779        H786   1.083       .  S
C780        C781   1.414       .  A
C781        C782   1.400       .  A
C781        F788   1.358       .  S
C782        C783   1.403       .  A
C782        H787   1.084       .  S
C783        C784   1.411       .  A
C784        F785   1.357       .  S
C789        C790   1.403       .  A
C789        C794   1.399       .  A
C789        H796   1.084       .  S
C790        C791   1.412       .  A
C791        C792   1.408       .  A
C791        F798   1.358   1_655  S
C792        C793   1.409       .  A
C792        H797   1.083       .  S
C793        C794   1.414       .  A
C794        F795   1.357       .  S
C799        C800   1.407       .  A
C799        C804   1.408       .  A
C799        H806   1.083       .  S
C800        C801   1.413       .  A
C801        C802   1.394       .  A
C801        F808   1.358       .  S
C802        C803   1.399       .  A
C802        H807   1.084       .  S
C803        C804   1.410       .  A
C804        F805   1.357       .  S
C809        C810   1.410       .  A
C809        C814   1.407       .  A
C809        H816   1.083       .  S
C810        C811   1.408       .  A
C811        C812   1.399       .  A
C811        F818   1.358       .  S
C812        C813   1.409       .  A
C812        H817   1.083       .  S
C813        C814   1.411       .  A
C814        F815   1.357       .  S
C819        C820   1.410       .  A
C819        C824   1.410       .  A
C819        H826   1.083       .  S
C820        C821   1.410       .  A
C821        C822   1.397       .  A
C821        F828   1.357       .  S
C822        C823   1.406       .  A
C822        H827   1.083       .  S
C823        C824   1.411       .  A
C824        F825   1.357       .  S
C829        C830   1.406       .  A
C829        C834   1.408       .  A
C829        H836   1.083       .  S
C830        C831   1.417       .  A
C831        C832   1.382       .  A
C831        F838   1.358       .  S
C832        C833   1.395       .  A
C832        H837   1.084       .  S
C833        C834   1.413       .  A
C834        F835   1.357       .  S
C839        C840   1.405       .  A
C839        C844   1.405       .  A
C839        H846   1.083       .  S
C840        C841   1.402       .  A
C841        C842   1.388       .  A
C841        F848   1.352       .  S
C842        C843   1.402       .  A
C842        H847   1.084       .  S
C843        C844   1.408       .  A
C844        F845   1.357       .  S
C849        C850   1.407       .  A
C849        C854   1.395       .  A
C849        H856   1.083       .  S
C850        C851   1.411       .  A
C851        C852   1.407       .  A
C851        F858   1.357       .  S
C852        C853   1.409       .  A
C852        H857   1.083       .  S
C853        C854   1.407       .  A
C854        F855   1.358       .  S
C859        C860   1.402       .  A
C859        C864   1.398       .  A
C859        H866   1.083       .  S
C860        C861   1.413       .  A
C861        C862   1.408       .  A
C861        F868   1.358       .  S
C862        C863   1.408       .  A
C862        H867   1.083       .  S
C863        C864   1.414       .  A
C864        F865   1.357       .  S
C869        C870   1.409       .  A
C869        C874   1.410       .  A
C869        H876   1.083       .  S
C870        C871   1.414       .  A
C871        C872   1.398       .  A
C871        F878   1.357       .  S
C872        C873   1.404       .  A
C872        H877   1.083       .  S
C873        C874   1.413       .  A
C874        F875   1.357       .  S
C879        C880   1.403       .  A
C879        C884   1.395       .  A
C879        H886   1.083       .  S
C880        C881   1.412       .  A
C881        C882   1.402       .  A
C881        F888   1.357   1_554  S
C882        C883   1.405       .  A
C882        H887   1.083       .  S
C883        C884   1.413       .  A
C884        F885   1.358       .  S
C889        C890   1.409       .  A
C889        C894   1.402   1_656  A
C889        H896   1.083       .  S
C890        C891   1.404   1_556  A
C891        C892   1.398       .  A
C891        F898   1.357       .  S
C892        C893   1.410   1_655  A
C892        H897   1.083       .  S
C893        C894   1.407       .  A
C894        F895   1.357       .  S
C899        C900   1.406       .  A
C899        C904   1.401       .  A
C899        H906   1.083       .  S
C900        C901   1.400       .  A
C901        C902   1.387       .  A
C901        F908   1.358       .  S
C902        C903   1.408       .  A
C902        H907   1.083       .  S
C903        C904   1.406       .  A
C904        F905   1.357       .  S
C909        C910   1.409       .  A
C909        C914   1.400       .  A
C909        H916   1.083       .  S
C910        C911   1.410       .  A
C911        C912   1.407       .  A
C911        F918   1.357       .  S
C912        C913   1.410       .  A
C912        H917   1.083   1_655  S
C913        C914   1.408       .  A
C914        F915   1.358       .  S
C919        C920   1.408       .  A
C919        C924   1.400       .  A
C919        H926   1.083       .  S
C920        C921   1.413       .  A
C921        C922   1.409       .  A
C921        F928   1.357       .  S
C922        C923   1.408       .  A
C922        H927   1.083       .  S
C923        C924   1.408       .  A
C924        F925   1.358       .  S
C929        C930   1.413       .  A
C929        C934   1.401       .  A
C929        H936   1.083       .  S
C930        C931   1.406       .  A
C931        C932   1.400       .  A
C931        F938   1.357       .  S
C932        C933   1.407       .  A
C932        H937   1.084       .  S
C933        C934   1.401       .  A
C934        F935   1.357       .  S
C939        C940   1.404       .  A
C939        C944   1.405       .  A
C939        H946   1.083       .  S
C940        C941   1.402       .  A
C941        C942   1.392       .  A
C941        F948   1.353       .  S
C942        C943   1.401       .  A
C942        H947   1.084       .  S
C943        C944   1.408       .  A
C944        F945   1.356       .  S
C949        C950   1.405       .  A
C949        C954   1.405       .  A
C949        H956   1.083       .  S
C950        C951   1.417       .  A
C951        C952   1.382       .  A
C951        F958   1.357       .  S
C952        C953   1.393       .  A
C952        H957   1.083       .  S
C953        C954   1.409       .  A
C954        F955   1.357       .  S
C959        C960   1.406       .  A
C959        C964   1.402       .  A
C959        H966   1.083       .  S
C960        C961   1.414       .  A
C961        C962   1.409       .  A
C961        F968   1.357   1_545  S
C962        C963   1.407       .  A
C962        H967   1.083       .  S
C963        C964   1.413       .  A
C964        F965   1.358       .  S
C969        C970   1.408       .  A
C969        C974   1.405       .  A
C969        H976   1.083       .  S
C970        C971   1.410       .  A
C971        C972   1.396       .  A
C971        F978   1.358       .  S
C972        C973   1.406       .  A
C972        H977   1.083       .  S
C973        C974   1.410       .  A
C974        F975   1.357       .  S
C979        C980   1.403       .  A
C979        C984   1.406       .  A
C979        H986   1.083       .  S
C980        C981   1.413       .  A
C981        C982   1.400       .  A
C981        F988   1.358       .  S
C982        C983   1.403       .  A
C982        H987   1.083   1_565  S
C983        C984   1.416       .  A
C984        F985   1.357       .  S
C989        C990   1.410       .  A
C989        C994   1.399       .  A
C989        H996   1.083       .  S
C990        C991   1.407       .  A
C991        C992   1.400       .  A
C991        F998   1.357       .  S
C992        C993   1.407       .  A
C992        H997   1.083       .  S
C993        C994   1.406       .  A
C994        F995   1.358       .  S
C999       C1000   1.408       .  A
C999       C1004   1.406       .  A
C999       H1006   1.083       .  S
C1000      C1001   1.408       .  A
C1001      C1002   1.401       .  A
C1001      F1008   1.358       .  S
C1002      C1003   1.409       .  A
C1002      H1007   1.083       .  S
C1003      C1004   1.411       .  A
C1004      F1005   1.357       .  S
C1009      C1010   1.403       .  A
C1009      C1014   1.411       .  A
C1009      H1016   1.083       .  S
C1010      C1011   1.414       .  A
C1011      C1012   1.386       .  A
C1011      F1018   1.357       .  S
C1012      C1013   1.396       .  A
C1012      H1017   1.083       .  S
C1013      C1014   1.418       .  A
C1014      F1015   1.357       .  S
C1019      C1020   1.410       .  A
C1019      C1024   1.400       .  A
C1019      H1026   1.083       .  S
C1020      C1021   1.409       .  A
C1021      C1022   1.404       .  A
C1021      F1028   1.357       .  S
C1022      C1023   1.408       .  A
C1022      H1027   1.084       .  S
C1023      C1024   1.404       .  A
C1024      F1025   1.358       .  S
C1029      C1030   1.413       .  A
C1029      C1034   1.402       .  A
C1029      H1036   1.083       .  S
C1030      C1031   1.407       .  A
C1031      C1032   1.400       .  A
C1031      F1038   1.357       .  S
C1032      C1033   1.408       .  A
C1032      H1037   1.083       .  S
C1033      C1034   1.402       .  A
C1034      F1035   1.358       .  S
C1039      C1040   1.410       .  A
C1039      C1044   1.402       .  A
C1039      H1046   1.083       .  S
C1040      C1041   1.410       .  A
C1041      C1042   1.409       .  A
C1041      F1048   1.357       .  S
C1042      C1043   1.411       .  A
C1042      H1047   1.083       .  S
C1043      C1044   1.409       .  A
C1044      F1045   1.358       .  S
C1049      C1050   1.408       .  A
C1049      C1054   1.396   1_554  A
C1049      H1056   1.084       .  S
C1050      C1051   1.404       .  A
C1051      C1052   1.403   1_554  A
C1051      F1058   1.357       .  S
C1052      C1053   1.411       .  A
C1052      H1057   1.083       .  S
C1053      C1054   1.405       .  A
C1054      F1055   1.357       .  S
C1059      C1060   1.413       .  A
C1059      C1064   1.407       .  A
C1059      H1066   1.083       .  S
C1060      C1061   1.408       .  A
C1061      C1062   1.402       .  A
C1061      F1068   1.357       .  S
C1062      C1063   1.410       .  A
C1062      H1067   1.083   1_655  S
C1063      C1064   1.406       .  A
C1064      F1065   1.357       .  S
C1069      C1070   1.410       .  A
C1069      C1074   1.385       .  A
C1069      H1076   1.084       .  S
C1070      C1071   1.407       .  A
C1071      C1072   1.408       .  A
C1071      F1078   1.357       .  S
C1072      C1073   1.411       .  A
C1072      H1077   1.083       .  S
C1073      C1074   1.398       .  A
C1074      F1075   1.356       .  S
C1079      C1080   1.405       .  A
C1079      C1084   1.387       .  A
C1079      H1086   1.081       .  S
C1080      C1081   1.407       .  A
C1081      C1082   1.405       .  A
C1081      F1088   1.357       .  S
C1082      C1083   1.408       .  A
C1082      H1087   1.083       .  S
C1083      C1084   1.399       .  A
C1084      F1085   1.356       .  S
C1089      C1090   1.410       .  A
C1089      C1094   1.411   1_554  A
C1089      H1096   1.083       .  S
C1090      C1091   1.413       .  A
C1091      C1092   1.400       .  A
C1091      F1098   1.357       .  S
C1092      C1093   1.405       .  A
C1092      H1097   1.084       .  S
C1093      C1094   1.412   1_554  A
C1094      F1095   1.357       .  S
C1099      C1100   1.405       .  A
C1099      C1104   1.399       .  A
C1099      H1106   1.083       .  S
C1100      C1101   1.412       .  A
C1101      C1102   1.408       .  A
C1101      F1108   1.357       .  S
C1102      C1103   1.409       .  A
C1102      H1107   1.083       .  S
C1103      C1104   1.413       .  A
C1104      F1105   1.358       .  S
C1109      C1110   1.409       .  A
C1109      C1114   1.400       .  A
C1109      H1116   1.083       .  S
C1110      C1111   1.412       .  A
C1111      C1112   1.412       .  A
C1111      F1118   1.357       .  S
C1112      C1113   1.412       .  A
C1112      H1117   1.083       .  S
C1113      C1114   1.410       .  A
C1114      F1115   1.358       .  S
C1119      C1120   1.403       .  A
C1119      C1124   1.400       .  A
C1119      H1126   1.083       .  S
C1120      C1121   1.417       .  A
C1121      C1122   1.406       .  A
C1121      F1128   1.358       .  S
C1122      C1123   1.403       .  A
C1122      H1127   1.083       .  S
C1123      C1124   1.413       .  A
C1124      F1125   1.357       .  S
C1129      C1130   1.412       .  A
C1129      C1134   1.406       .  A
C1129      H1136   1.083       .  S
C1130      C1131   1.405       .  A
C1131      C1132   1.400       .  A
C1131      F1138   1.357       .  S
C1132      C1133   1.411       .  A
C1132      H1137   1.083       .  S
C1133      C1134   1.405       .  A
C1134      F1135   1.357       .  S
C1139      C1140   1.411   1_565  A
C1139      C1144   1.408   1_565  A
C1139      H1146   1.083       .  S
C1140      C1141   1.408       .  A
C1141      C1142   1.400       .  A
C1141      F1148   1.357       .  S
C1142      C1143   1.409       .  A
C1142      H1147   1.083       .  S
C1143      C1144   1.410       .  A
C1144      F1145   1.357       .  S
C1149      C1150   1.405       .  A
C1149      C1154   1.400   1_545  A
C1149      H1156   1.083   1_556  S
C1150      C1151   1.415       .  A
C1151      C1152   1.400       .  A
C1151      F1158   1.358       .  S
C1152      C1153   1.400   1_545  A
C1152      H1157   1.084       .  S
C1153      C1154   1.408       .  A
C1154      F1155   1.358       .  S
C1159      C1160   1.412   1_545  A
C1159      C1164   1.407       .  A
C1159      H1166   1.083       .  S
C1160      C1161   1.410       .  A
C1161      C1162   1.402       .  A
C1161      F1168   1.357       .  S
C1162      C1163   1.406   1_565  A
C1162      H1167   1.083       .  S
C1163      C1164   1.406       .  A
C1164      F1165   1.357       .  S
C1169      C1170   1.409       .  A
C1169      C1174   1.407       .  A
C1169      H1176   1.083       .  S
C1170      C1171   1.401       .  A
C1171      C1172   1.390       .  A
C1171      F1178   1.357       .  S
C1172      C1173   1.408       .  A
C1172      H1177   1.081       .  S
C1173      C1174   1.407       .  A
C1174      F1175   1.357       .  S
C1179      C1180   1.408       .  A
C1179      C1184   1.399       .  A
C1179      H1186   1.083       .  S
C1180      C1181   1.411       .  A
C1181      C1182   1.407       .  A
C1181      F1188   1.357       .  S
C1182      C1183   1.409       .  A
C1182      H1187   1.083       .  S
C1183      C1184   1.408       .  A
C1184      F1185   1.358       .  S
C1189      C1190   1.409       .  A
C1189      C1194   1.408       .  A
C1189      H1196   1.084       .  S
C1190      C1191   1.406       .  A
C1191      C1192   1.400       .  A
C1191      F1198   1.358       .  S
C1192      C1193   1.410       .  A
C1192      H1197   1.083       .  S
C1193      C1194   1.410       .  A
C1194      F1195   1.357       .  S
C1199      C1200   1.410       .  A
C1199      C1204   1.403       .  A
C1199      H1206   1.083       .  S
C1200      C1201   1.407       .  A
C1201      C1202   1.404       .  A
C1201      F1208   1.357       .  S
C1202      C1203   1.411       .  A
C1202      H1207   1.083       .  S
C1203      C1204   1.407       .  A
C1204      F1205   1.357       .  S
C1209      C1210   1.409       .  A
C1209      C1214   1.399       .  A
C1209      H1216   1.083       .  S
C1210      C1211   1.402       .  A
C1211      C1212   1.401       .  A
C1211      F1218   1.357       .  S
C1212      C1213   1.413       .  A
C1212      H1217   1.083       .  S
C1213      C1214   1.405       .  A
C1214      F1215   1.357   1_455  S
C1219      C1220   1.400       .  A
C1219      C1224   1.394       .  A
C1219      H1226   1.082       .  S
C1220      C1221   1.401       .  A
C1221      C1222   1.398       .  A
C1221      F1228   1.357       .  S
C1222      C1223   1.404       .  A
C1222      H1227   1.082       .  S
C1223      C1224   1.402       .  A
C1224      F1225   1.357       .  S
C1229      C1230   1.394       .  A
C1229      C1234   1.385       .  A
C1229      H1236   1.082       .  S
C1230      C1231   1.409       .  A
C1231      C1232   1.408       .  A
C1231      F1238   1.357       .  S
C1232      C1233   1.408       .  A
C1232      H1237   1.083       .  S
C1233      C1234   1.414       .  A
C1234      F1235   1.357       .  S
C1239      C1240   1.405       .  A
C1239      C1244   1.399       .  A
C1239      H1246   1.083       .  S
C1240      C1241   1.412       .  A
C1241      C1242   1.409       .  A
C1241      F1248   1.357       .  S
C1242      C1243   1.409       .  A
C1242      H1247   1.083       .  S
C1243      C1244   1.413       .  A
C1244      F1245   1.357       .  S
