geometry optimzed in LAMMPS
_audit_creation_date              2020-12-01 
_audit_creation_method            'lammps2cif' 
_symmetry_space_group_name_H-M    'P1' 
_symmetry_Int_Tables_number       1 
_symmetry_cell_setting            triclinic 
loop_ 
_symmetry_equiv_pos_as_xyz 
  x,y,z 
_cell_length_a                    70.18017172 
_cell_length_b                    70.12775456698051 
_cell_length_c                    35.480314624301016 
_cell_angle_alpha                 90.48829726773221 
_cell_angle_beta                  90.25080671765578 
_cell_angle_gamma                 89.53659781009213 
loop_ 
_atom_site_label 
_atom_site_type_symbol 
_atom_site_fract_x 
_atom_site_fract_y 
_atom_site_fract_z 
_atom_site_charge 
O1          O  0.63728713  0.82548030  0.15329148    -0.77500
C2          C  0.61920118  0.87388934  0.08045719     0.83500
O3          O  0.67631391  0.87900206  0.18630239    -0.78600
O4          O  0.61511396  0.91457109  0.18107312    -0.80100
O5          O  0.58721416  0.85500867  0.21657135    -0.79900
O6          O  0.62317502  0.82333413  0.20920798    -0.78500
Zn7        Zn  0.64056014  0.85359312  0.14390846     1.55700
O8          O  0.58295956  0.87949049  0.17754644    -0.79900
Cd9        Cd  0.61650947  0.85182259  0.22038159     1.59700
Cd10       Cd  0.64970753  0.88356418  0.21101746     1.59600
O11         O  0.62433466  0.85911185  0.27506012    -0.79900
O12         O  0.62936926  0.86890546  0.18371365    -1.90400
Cd13       Cd  0.61025670  0.88698084  0.16134554     1.59900
O14         O  0.65046490  0.87661331  0.26770861    -0.79900
O15         O  0.61102828  0.88585878  0.10248065    -0.78500
C16         C  0.68080794  0.86843153  0.15817071     0.84000
C17         C  0.63088350  0.81558176  0.18030255     0.83700
O18         O  0.62987225  0.86058746  0.09308992    -0.77500
C19         C  0.57638270  0.86661695  0.19900692     0.84500
O20         O  0.66854409  0.85841906  0.14070268    -0.77600
C21         C  0.63832004  0.86848655  0.28865556     0.84600
C22         C  0.62842471  0.92210261  0.20062769     0.84900
O23         O  0.64281030  0.91246235  0.21206150    -0.80000
O24         O  0.64084025  0.82888142  0.65754636    -0.77500
C25         C  0.62568473  0.87485555  0.57785923     0.83500
O26         O  0.67995495  0.87962628  0.69032818    -0.78600
O27         O  0.62515885  0.92041974  0.67443194    -0.80100
O28         O  0.58657569  0.86510591  0.70338630    -0.79900
O29         O  0.61905254  0.82806496  0.70294032    -0.78500
Zn30       Zn  0.64431128  0.85635633  0.64512156     1.55700
O31         O  0.58927084  0.88980266  0.66436170    -0.79900
Cd32       Cd  0.61500977  0.85736685  0.71391257     1.59700
Cd33       Cd  0.65288296  0.88468679  0.71296005     1.59600
O34         O  0.62157310  0.86251235  0.77054834    -0.79900
O35         O  0.63243302  0.87282975  0.68163936    -1.90400
Cd36       Cd  0.61796918  0.89326597  0.65424850     1.59900
O37         O  0.65034529  0.87602268  0.76858156    -0.79900
O38         O  0.62122056  0.89015868  0.59567563    -0.78500
C39         C  0.68455430  0.87074076  0.66009955     0.84000
C40         C  0.63029546  0.81961879  0.67981575     0.83700
O41         O  0.63290369  0.86051654  0.59443237    -0.77500
C42         C  0.57917854  0.87834398  0.68334498     0.84500
O43         O  0.67229552  0.86168684  0.64060146    -0.77600
C44         C  0.63646801  0.86901742  0.78691904     0.84600
C45         C  0.63774422  0.92571296  0.69838129     0.84900
O46         O  0.64908451  0.91392459  0.71411910    -0.80000
O47         O  0.87693658  0.82956760  0.11668210    -0.77500
C48         C  0.88124354  0.88160931  0.19235398     0.83500
O49         O  0.83063610  0.87692736  0.07965001    -0.78600
O50         O  0.88208799  0.92199482  0.09176180    -0.80100
O51         O  0.92438090  0.87061923  0.06249170    -0.79900
O52         O  0.89662966  0.83153536  0.06773111    -0.78500
Zn53       Zn  0.86827764  0.85694331  0.12611598     1.55700
O54         O  0.92104415  0.89470742  0.10348529    -0.79900
Cd55       Cd  0.89683058  0.86038890  0.05545102     1.59700
Cd56       Cd  0.85683204  0.88403446  0.05737801     1.59600
O57         O  0.88884188  0.86327604  0.99931073    -0.79900
O58         O  0.87842198  0.87420172  0.08876906    -1.90400
Cd59       Cd  0.89182545  0.89611607  0.11364766     1.59900
O60         O  0.85895567  0.87435098  0.00237512    -0.79900
O61         O  0.88729350  0.89508378  0.17169069    -0.78500
C62         C  0.82664334  0.86632347  0.10746209     0.84000
C63         C  0.88792846  0.82177163  0.09234356     0.83700
O64         O  0.87524095  0.86595243  0.17831174    -0.77500
C65         C  0.93141534  0.88411312  0.08238695     0.84500
O66         O  0.83955010  0.85770400  0.12615016    -0.77600
C67         C  0.87311572  0.86800557  0.98360575     0.84600
C68         C  0.86859709  0.92607696  0.06884829     0.84900
O69         O  0.85782838  0.91336716  0.05462251    -0.80000
O70         O  0.87623003  0.83065365  0.61088592    -0.77500
C71         C  0.88702595  0.87845874  0.69257463     0.83500
O72         O  0.83493951  0.88415226  0.57917782    -0.78600
O73         O  0.89038578  0.92226064  0.59843821    -0.80100
O74         O  0.92786280  0.87008664  0.55959530    -0.79900
O75         O  0.89906235  0.83207907  0.56760655    -0.78500
Zn76       Zn  0.87030524  0.85845988  0.62329723     1.55700
O77         O  0.92595570  0.89197505  0.60536942    -0.79900
Cd78       Cd  0.89985528  0.86075545  0.55481656     1.59700
Cd79       Cd  0.86211767  0.88887994  0.55651561     1.59600
O80         O  0.89093092  0.86265816  0.49955842    -0.79900
O81         O  0.88211490  0.87560918  0.58786985    -1.90400
Cd82       Cd  0.89722128  0.89504508  0.61615207     1.59900
O83         O  0.86384988  0.87968486  0.50043552    -0.79900
O84         O  0.89385945  0.89215616  0.67369033    -0.78500
C85         C  0.82996078  0.87318094  0.60597111     0.84000
C86         C  0.88828845  0.82253639  0.58906980     0.83700
O87         O  0.87879364  0.86436402  0.67663845    -0.77500
C88         C  0.93562199  0.88218020  0.58180462     0.84500
O89         O  0.84197817  0.86273358  0.62332992    -0.77600
C90         C  0.87659041  0.87002765  0.48286471     0.84600
C91         C  0.87911628  0.92875093  0.57330601     0.84900
O92         O  0.86750926  0.91805475  0.55530512    -0.80000
O93         O  0.86924195  0.16264990  0.42490268    -0.77500
C94         C  0.88454275  0.11160725  0.35696121     0.83500
O95         O  0.83110297  0.11506734  0.47376773    -0.78600
O96         O  0.88845847  0.07346482  0.45919070    -0.80100
O97         O  0.92216374  0.13377632  0.48335258    -0.79900
O98         O  0.88768497  0.16681617  0.47548952    -0.78500
Zn99       Zn  0.86546366  0.13436026  0.41975240     1.55700
O100        O  0.92418904  0.10687963  0.44932082    -0.79900
Cd101      Cd  0.89340505  0.13887552  0.49087480     1.59700
Cd102      Cd  0.85854742  0.10899687  0.49217707     1.59600
O103        O  0.88752058  0.13556151  0.54758684    -0.79900
O104        O  0.87830825  0.12064489  0.45958270    -1.90400
Cd105      Cd  0.89562386  0.10032798  0.43779895     1.59900
O106        O  0.86228640  0.11641905  0.54827995    -0.79900
O107        O  0.89267691  0.09976404  0.37906645    -0.78500
C108        C  0.82554012  0.12235490  0.44282275     0.84000
C109        C  0.87797785  0.17347609  0.44804555     0.83700
O110        O  0.87483514  0.12569687  0.36942888    -0.77500
C111        C  0.93195667  0.12081831  0.46688699     0.84500
O112        O  0.83723058  0.12955888  0.41970872    -0.77600
C113        C  0.87488079  0.12631623  0.56530691     0.84600
C114        C  0.87399177  0.06815757  0.47815329     0.84900
O115        O  0.86151553  0.07990229  0.49034239    -0.80000
O116        O  0.85732900  0.16227868  0.93259897    -0.77500
C117        C  0.86563092  0.11440260  0.85397755     0.83500
O118        O  0.82609621  0.10795921  0.98626732    -0.78600
O119        O  0.88216466  0.07317733  0.94666924    -0.80100
O120        O  0.91726608  0.13118703  0.96811449    -0.79900
O121        O  0.88285588  0.16560293  0.96951485    -0.78500
Zn122      Zn  0.85350303  0.13402578  0.92685549     1.55700
O123        O  0.91376438  0.10671289  0.92809443    -0.79900
Cd124      Cd  0.88909139  0.13740365  0.98381129     1.59700
Cd125      Cd  0.85541220  0.10543391  0.99689607     1.59600
O126        O  0.88643832  0.13509795  0.04195605    -0.79900
O127        O  0.87071023  0.11952980  0.95843888    -1.90400
Cd128      Cd  0.88507112  0.10073889  0.92631415     1.59900
O129        O  0.86249389  0.11477557  0.05089852    -0.79900
O130        O  0.87677220  0.10244857  0.86993930    -0.78500
C131        C  0.81746745  0.11720523  0.96039176     0.84000
C132        C  0.86950299  0.17272781  0.94937360     0.83700
O133        O  0.85668243  0.12714167  0.87257607    -0.77500
C134        C  0.92421180  0.11868379  0.94549238     0.84500
O135        O  0.82646511  0.12769658  0.93758195    -0.77600
C136        C  0.87538141  0.12590580  0.06361079     0.84600
C137        C  0.87304460  0.06631572  0.97439134     0.84900
O138        O  0.86236727  0.07665883  0.99535229    -0.80000
O139        O  0.64574582  0.15709060  0.35646258    -0.77500
C140        C  0.64097465  0.10644894  0.42698421     0.83500
O141        O  0.68192855  0.10860445  0.29322224    -0.78600
O142        O  0.62966423  0.06664030  0.32840124    -0.80100
O143        O  0.58936052  0.12340305  0.31253349    -0.79900
O144        O  0.62102592  0.16033826  0.31748411    -0.78500
Zn145      Zn  0.65198750  0.12908011  0.35768681     1.55700
O146        O  0.59366219  0.09727274  0.34728424    -0.79900
Cd147      Cd  0.61695316  0.13213159  0.29990002     1.59700
Cd148      Cd  0.65308630  0.10304228  0.28351507     1.59600
O149        O  0.61989385  0.13173361  0.24176028    -0.79900
O150        O  0.63622767  0.11447118  0.32347342    -1.90400
Cd151      Cd  0.62296755  0.09357128  0.35168835     1.59900
O152        O  0.64473897  0.11241151  0.23054749    -0.79900
O153        O  0.63018433  0.09480802  0.40920700    -0.78500
C154        C  0.68956647  0.11766896  0.32058384     0.84000
C155        C  0.63348786  0.16747976  0.33967713     0.83700
O156        O  0.64956772  0.11982356  0.41036033    -0.77500
C157        C  0.58278847  0.10938576  0.33111122     0.84500
O158        O  0.67949014  0.12592080  0.34563917    -0.77600
C159        C  0.63134492  0.12338234  0.21910252     0.84600
C160        C  0.64080179  0.06169429  0.30152450     0.84900
O161        O  0.65041611  0.07379602  0.28319708    -0.80000
O162        O  0.64082776  0.15999657  0.85345354    -0.77500
C163        C  0.62198359  0.11250552  0.92558424     0.83500
O164        O  0.67404921  0.10405186  0.81008976    -0.78600
O165        O  0.61211623  0.07265521  0.82531374    -0.80100
O166        O  0.58574982  0.13433154  0.79541405    -0.79900
O167        O  0.62184415  0.16458662  0.80386435    -0.78500
Zn168      Zn  0.64253969  0.13139939  0.86039212     1.55700
O169        O  0.58161315  0.10962983  0.83370878    -0.79900
Cd170      Cd  0.61480152  0.13675718  0.78932860     1.59700
Cd171      Cd  0.64616338  0.10226020  0.78974913     1.59600
O172        O  0.62073408  0.13165770  0.73301990    -0.79900
O173        O  0.62830575  0.11779221  0.82182878    -1.90400
Cd174      Cd  0.60924378  0.10051533  0.84595756     1.59900
O175        O  0.64412731  0.10990418  0.73336168    -0.79900
O176        O  0.61257836  0.10115241  0.90439457    -0.78500
C177        C  0.68069040  0.11282269  0.83889326     0.84000
C178        C  0.63221399  0.17105565  0.83059397     0.83700
O179        O  0.63292529  0.12512268  0.91208149    -0.77500
C180        C  0.57498743  0.12308297  0.81334056     0.84500
O181        O  0.67016798  0.12338591  0.85967545    -0.77600
C182        C  0.63254573  0.12082724  0.71579465     0.84600
C183        C  0.62413233  0.06478097  0.80307183     0.84900
O184        O  0.63795785  0.07400349  0.78906973    -0.80000
O185        O  0.13641016  0.87774381  0.12392689    -0.77500
C186        C  0.13518819  0.83033430  0.04371239     0.83500
O187        O  0.17945479  0.89400107  0.02412040    -0.78600
O188        O  0.12425730  0.86988297  0.94494369    -0.80100
O189        O  0.08625158  0.89468479  0.04497582    -0.79900
O190        O  0.11645338  0.90226427  0.11579952    -0.78500
Zn191      Zn  0.14616345  0.86984883  0.07338211     1.55700
O192        O  0.08921935  0.86829065  0.00973547    -0.79900
Cd193      Cd  0.11422276  0.90273129  0.05691124     1.59700
Cd194      Cd  0.15177687  0.89698658  0.00297106     1.59600
O195        O  0.11874306  0.93019116  0.03489684    -0.79900
O196        O  0.13260012  0.88353379  0.03425660    -1.90400
Cd197      Cd  0.11840605  0.86488230  0.00160450     1.59900
O198        O  0.14454151  0.92553165  0.99920536    -0.79900
O199        O  0.12568234  0.83678434  0.01570682    -0.78500
C200        C  0.18554570  0.88494092  0.05283678     0.84000
C201        C  0.12543839  0.89067608  0.13719190     0.83700
O202        O  0.14310027  0.84142422  0.06755927    -0.77500
C203        C  0.07896223  0.88063137  0.02704834     0.84500
O204        O  0.17432540  0.87542508  0.07345401    -0.77600
C205        C  0.13129315  0.93627984  0.01194169     0.84600
C206        C  0.13777581  0.87878789  0.92894231     0.84900
O207        O  0.15042417  0.88778346  0.94763052    -0.80000
O208        O  0.14127500  0.86937438  0.62185030    -0.77500
C209        C  0.14061713  0.82937342  0.53287851     0.83500
O210        O  0.18130064  0.89705074  0.52478312    -0.78600
O211        O  0.12755644  0.87146631  0.44436829    -0.80100
O212        O  0.09034781  0.89138279  0.55370224    -0.79900
O213        O  0.12232755  0.89501990  0.62343317    -0.78500
Zn214      Zn  0.15126981  0.86718035  0.56934247     1.55700
O215        O  0.09281325  0.86873519  0.50925505    -0.79900
Cd216      Cd  0.11831574  0.89922390  0.56544194     1.59700
Cd217      Cd  0.15351344  0.89851274  0.50508679     1.59600
O218        O  0.12128186  0.92784098  0.55003754    -0.79900
O219        O  0.13614998  0.88246384  0.53544658    -1.90400
Cd220      Cd  0.12167566  0.86534022  0.50040891     1.59900
O221        O  0.14469937  0.92657409  0.50768458    -0.79900
O222        O  0.12856741  0.83687132  0.51027170    -0.78500
C223        C  0.18839629  0.88745377  0.55179387     0.84000
C224        C  0.13090867  0.88123745  0.63986849     0.83700
O225        O  0.15061994  0.83943508  0.55529654    -0.77500
C226        C  0.08285393  0.87927993  0.53110058     0.84500
O227        O  0.17843839  0.87585092  0.57067661    -0.77600
C228        C  0.13210546  0.93588114  0.52615089     0.84600
C229        C  0.14076519  0.88115948  0.42925775     0.84900
O230        O  0.15256870  0.89083689  0.44877360    -0.80000
O231        O  0.36694932  0.86206329  0.10416363    -0.77500
C232        C  0.37623558  0.82508858  0.19472443     0.83500
O233        O  0.32816914  0.88963641  0.20520405    -0.78600
O234        O  0.38716903  0.86857928  0.27638322    -0.80100
O235        O  0.41724298  0.89208501  0.16254454    -0.79900
O236        O  0.38321645  0.88903060  0.09803996    -0.78500
Zn237      Zn  0.35917111  0.86049009  0.15831681     1.55700
O238        O  0.42036735  0.87020203  0.20745410    -0.79900
Cd239      Cd  0.38821769  0.89585247  0.15463533     1.59700
Cd240      Cd  0.35652088  0.89347248  0.22179723     1.59600
O241        O  0.38278252  0.92433859  0.16880676    -0.79900
O242        O  0.37391759  0.87825533  0.18838986    -1.90400
Cd243      Cd  0.39236418  0.86361554  0.22000321     1.59900
O244        O  0.36329482  0.92205963  0.21812875    -0.79900
O245        O  0.38879467  0.83470353  0.21231276    -0.78500
C246        C  0.32097772  0.87895413  0.17959862     0.84000
C247        C  0.37559809  0.87408284  0.08390156     0.83700
O248        O  0.36344803  0.83307909  0.17448841    -0.77500
C249        C  0.42755327  0.88168532  0.18383747     0.84500
O250        O  0.33120373  0.86736725  0.16035412    -0.77600
C251        C  0.37360260  0.93190365  0.19618414     0.84600
C252        C  0.37400172  0.87713730  0.29460094     0.84900
O253        O  0.36070721  0.88649174  0.27820245    -0.80000
O254        O  0.36941537  0.87408733  0.59859551    -0.77500
C255        C  0.37014563  0.82490246  0.67470032     0.83500
O256        O  0.33120931  0.89211906  0.70490492    -0.78600
O257        O  0.38426123  0.86193013  0.77679408    -0.80100
O258        O  0.42344927  0.88448136  0.67609778    -0.79900
O259        O  0.39193930  0.89592860  0.60690142    -0.78500
Zn260      Zn  0.36125461  0.86566593  0.64969064     1.55700
O261        O  0.41877741  0.85883311  0.71176352    -0.79900
Cd262      Cd  0.39606212  0.89478188  0.66509721     1.59700
Cd263      Cd  0.35951164  0.89339391  0.72138530     1.59600
O264        O  0.39377565  0.92250376  0.68655125    -0.79900
O265        O  0.37660553  0.87765026  0.68845929    -1.90400
Cd266      Cd  0.38951665  0.85741719  0.71935730     1.59900
O267        O  0.36744678  0.92164591  0.72140275    -0.79900
O268        O  0.38060388  0.83022097  0.70238555    -0.78500
C269        C  0.32386943  0.88388119  0.67631205     0.84000
C270        C  0.38087147  0.88633900  0.58549811     0.83700
O271        O  0.36239939  0.83691536  0.65255438    -0.77500
C272        C  0.42980114  0.87024505  0.69471720     0.84500
O273        O  0.33384206  0.87369028  0.65389698    -0.77600
C274        C  0.38142817  0.93067903  0.70760792     0.84600
C275        C  0.37297004  0.87342948  0.79393645     0.84900
O276        O  0.36223691  0.88510713  0.77643957    -0.80000
O277        O  0.38220756  0.13508906  0.40131247    -0.77500
C278        C  0.38725061  0.17608143  0.30501092     0.83500
O279        O  0.33239226  0.12112061  0.31272960    -0.78600
O280        O  0.38606692  0.12816021  0.21978965    -0.80100
O281        O  0.42567374  0.10752479  0.32280641    -0.79900
O282        O  0.39433060  0.10574388  0.39411543    -0.78500
Zn283      Zn  0.37224566  0.14225474  0.34965654     1.55700
O284        O  0.42415458  0.12931513  0.27746752    -0.79900
Cd285      Cd  0.39696207  0.10349808  0.33586917     1.59700
Cd286      Cd  0.35764405  0.11146278  0.28822751     1.59600
O287        O  0.38842429  0.07647529  0.31731204    -0.79900
O288        O  0.38044097  0.12355915  0.31229716    -1.90400
Cd289      Cd  0.39556794  0.13617928  0.27268476     1.59900
O290        O  0.35924919  0.08226277  0.29437032    -0.79900
O291        O  0.39344695  0.16541199  0.27847006    -0.78500
C292        C  0.32980087  0.13292285  0.33985490     0.84000
C293        C  0.38902090  0.11968349  0.41504695     0.83700
O294        O  0.37957757  0.16922952  0.33450488    -0.77500
C295        C  0.43371009  0.11826679  0.29882694     0.84500
O296        O  0.34362797  0.14171043  0.35529293    -0.77600
C297        C  0.37266631  0.07077396  0.30314264     0.84600
C298        C  0.37073801  0.12053772  0.20774324     0.84900
O299        O  0.35770299  0.11505640  0.23003874    -0.80000
O300        O  0.36760322  0.13577327  0.90055865    -0.77500
C301        C  0.37726301  0.17860302  0.81961512     0.83500
O302        O  0.32599806  0.12205289  0.79053101    -0.78600
O303        O  0.38939176  0.13822843  0.72953305    -0.80100
O304        O  0.41480890  0.10609442  0.83667910    -0.79900
O305        O  0.37997063  0.10642719  0.89914832    -0.78500
Zn306      Zn  0.36006423  0.14180286  0.84774627     1.55700
O307        O  0.41989359  0.13199700  0.80201596    -0.79900
Cd308      Cd  0.38549141  0.10402932  0.84130217     1.59700
Cd309      Cd  0.35418327  0.11489918  0.77510308     1.59600
O310        O  0.37744859  0.07764557  0.81897438    -0.79900
O311        O  0.37301782  0.12536046  0.81267495    -1.90400
Cd312      Cd  0.39266777  0.14100889  0.78695645     1.59900
O313        O  0.35591883  0.08539226  0.77495283    -0.79900
O314        O  0.38937196  0.17000213  0.79870463    -0.78500
C315        C  0.32040944  0.13060110  0.82055226     0.84000
C316        C  0.37424658  0.12119504  0.91727574     0.83700
O317        O  0.36528892  0.16948064  0.83910308    -0.77500
C318        C  0.42601358  0.11788327  0.82122931     0.84500
O319        O  0.33210942  0.13803282  0.84369486    -0.77600
C320        C  0.36571730  0.07302449  0.79285836     0.84600
C321        C  0.37650589  0.13154124  0.70788897     0.84900
O322        O  0.36170258  0.12320714  0.72050207    -0.80000
O323        O  0.13577708  0.14046759  0.33265613    -0.77500
C324        C  0.12294812  0.18195938  0.42333664     0.83500
O325        O  0.18090828  0.12693728  0.43137434    -0.78600
O326        O  0.12162841  0.13750227  0.51109049    -0.80100
O327        O  0.09080213  0.10902072  0.40387461    -0.79900
O328        O  0.12324556  0.11137807  0.33629896    -0.78500
Zn329      Zn  0.14309644  0.14779648  0.38594652     1.55700
O330        O  0.08667601  0.13231050  0.44628054    -0.79900
Cd331      Cd  0.11985124  0.10814919  0.39401441     1.59700
Cd332      Cd  0.15453706  0.11860971  0.45196188     1.59600
O333        O  0.12956388  0.08160976  0.41255347    -0.79900
O334        O  0.13303384  0.12941455  0.42130967    -1.90400
Cd335      Cd  0.11421674  0.14223176  0.45539835     1.59900
O336        O  0.15384627  0.08911781  0.45056162    -0.79900
O337        O  0.11431914  0.17144457  0.44679167    -0.78500
C338        C  0.18479745  0.13808282  0.40427969     0.84000
C339        C  0.12903424  0.12548574  0.31709475     0.83700
O340        O  0.13418142  0.17492207  0.39850743    -0.77500
C341        C  0.08006204  0.11914421  0.42500981     0.84500
O342        O  0.17180226  0.14687255  0.38610435    -0.77600
C343        C  0.14302808  0.07683736  0.43498782     0.84600
C344        C  0.13699153  0.13190654  0.52704843     0.84900
O345        O  0.15137349  0.12597437  0.50833726    -0.80000
O346        O  0.12484720  0.14110809  0.83195489    -0.77500
C347        C  0.12135666  0.18440349  0.92414987     0.83500
O348        O  0.17363104  0.12290479  0.91412485    -0.78600
O349        O  0.12348146  0.13971753  0.01275330    -0.80100
O350        O  0.08013875  0.11838478  0.91369364    -0.79900
O351        O  0.10983149  0.11342818  0.83926799    -0.78500
Zn352      Zn  0.13550434  0.14872787  0.88241336     1.55700
O353        O  0.08420264  0.14051719  0.95846209    -0.79900
Cd354      Cd  0.10836148  0.11191437  0.89803242     1.59700
Cd355      Cd  0.14870771  0.11811081  0.94460303     1.59600
O356        O  0.11532512  0.08448740  0.91805470    -0.79900
O357        O  0.12647946  0.13117786  0.92030201    -1.90400
Cd358      Cd  0.11291098  0.14582675  0.95999050     1.59900
O359        O  0.14307369  0.08924817  0.94778863    -0.79900
O360        O  0.11539783  0.17464199  0.95166310    -0.78500
C361        C  0.17690866  0.13483060  0.88792391     0.84000
C362        C  0.11630225  0.12660298  0.81831409     0.83700
O363        O  0.12891461  0.17654714  0.89515687    -0.77500
C364        C  0.07345452  0.12993279  0.93849933     0.84500
O365        O  0.16392777  0.14589664  0.87535835    -0.77600
C366        C  0.12945703  0.07839631  0.93763531     0.84600
C367        C  0.13948285  0.13312464  0.02397164     0.84900
O368        O  0.15181288  0.12640450  0.00098043    -0.80000
O369        O  0.87569962  0.35989935  0.37737310    -0.77500
C370        C  0.88305077  0.32243368  0.46928188     0.83500
O371        O  0.82785369  0.38233131  0.46550772    -0.78600
O372        O  0.88372093  0.36615495  0.55333257    -0.80100
O373        O  0.91921088  0.39042459  0.44353937    -0.79900
O374        O  0.88553045  0.39003607  0.37623305    -0.78500
Zn375      Zn  0.86533305  0.35630529  0.42928374     1.55700
O376        O  0.92063821  0.37089047  0.49279771    -0.79900
Cd377      Cd  0.89008787  0.39422568  0.43394387     1.59700
Cd378      Cd  0.85416664  0.38826441  0.49221591     1.59600
O379        O  0.88290636  0.42171019  0.45174381    -0.79900
O380        O  0.87533828  0.37525388  0.46353034    -1.90400
Cd381      Cd  0.89284715  0.36224039  0.49911680     1.59900
O382        O  0.85882540  0.41754942  0.49184769    -0.79900
O383        O  0.89277889  0.33317476  0.49087654    -0.78500
C384        C  0.82430616  0.37089905  0.43804177     0.84000
C385        C  0.88139681  0.37440155  0.35947507     0.83700
O386        O  0.87134346  0.32921839  0.44520726    -0.77500
C387        C  0.92870512  0.38116849  0.46824573     0.84500
O388        O  0.83719427  0.36031427  0.42356622    -0.77600
C389        C  0.87070380  0.42828351  0.47519042     0.84600
C390        C  0.86855115  0.37251049  0.56859227     0.84900
O391        O  0.85517406  0.38044954  0.54952085    -0.80000
O392        O  0.86835840  0.36324762  0.87317402    -0.77500
C393        C  0.87826292  0.32208049  0.96916203     0.83500
O394        O  0.82243578  0.37768392  0.96757197    -0.78600
O395        O  0.87977559  0.37005008  0.05443221    -0.80100
O396        O  0.91435918  0.39057590  0.94578742    -0.79900
O397        O  0.88016412  0.39255397  0.87932376    -0.78500
Zn398      Zn  0.86130832  0.35592819  0.92653272     1.55700
O399        O  0.91523094  0.36846644  0.99065352    -0.79900
Cd400      Cd  0.88522846  0.39468537  0.93679928     1.59700
Cd401      Cd  0.84832391  0.38667708  0.99025887     1.59600
O402        O  0.87670487  0.42178022  0.95502096    -0.79900
O403        O  0.87027385  0.37464371  0.96291038    -1.90400
Cd404      Cd  0.88706749  0.36194849  0.00029843     1.59900
O405        O  0.84929980  0.41587443  0.98433753    -0.79900
O406        O  0.88486405  0.33270467  0.99533584    -0.78500
C407        C  0.81932647  0.36578706  0.94084918     0.84000
C408        C  0.87406738  0.37883970  0.85889043     0.83700
O409        O  0.86981524  0.32899689  0.94031074    -0.77500
C410        C  0.92359196  0.37958601  0.96798694     0.84500
O411        O  0.83277149  0.35655349  0.92493362    -0.77600
C412        C  0.86164751  0.42744414  0.97202749     0.84600
C413        C  0.86465822  0.37723111  0.06870332     0.84900
O414        O  0.85058468  0.38255601  0.04831514    -0.80000
O415        O  0.85922012  0.62664448  0.17722723    -0.77500
C416        C  0.86794903  0.67346638  0.10030169     0.83500
O417        O  0.82069635  0.60922735  0.07357611    -0.78600
O418        O  0.87575770  0.63514816  0.99969726    -0.80100
O419        O  0.91210768  0.60900166  0.10654096    -0.79900
O420        O  0.87833900  0.60130846  0.17160709    -0.78500
Zn421      Zn  0.85236038  0.63495093  0.12500785     1.55700
O422        O  0.91182731  0.63230280  0.06404054    -0.79900
Cd423      Cd  0.88382652  0.60169680  0.11397790     1.59700
Cd424      Cd  0.84861032  0.60634458  0.05487864     1.59600
O425        O  0.88050491  0.57456793  0.09090906    -0.79900
O426        O  0.86685574  0.62053597  0.08792982    -1.90400
Cd427      Cd  0.88282555  0.63812554  0.05674496     1.59900
O428        O  0.85596778  0.57767203  0.05118991    -0.79900
O429        O  0.87827837  0.66637137  0.07404030    -0.78500
C430        C  0.81363183  0.61958409  0.09977804     0.84000
C431        C  0.86872408  0.61300759  0.19178416     0.83700
O432        O  0.85756587  0.66306962  0.12096772    -0.77500
C433        C  0.92077431  0.62073210  0.08551760     0.84500
O434        O  0.82403372  0.63031899  0.12029160    -0.77600
C435        C  0.86904823  0.56761596  0.06651620     0.84600
C436        C  0.86200995  0.62662867  0.98306766     0.84900
O437        O  0.85009555  0.61646443  0.00071108    -0.80000
O438        O  0.85717441  0.62876109  0.67818122    -0.77500
C439        C  0.86458358  0.67443062  0.60212416     0.83500
O440        O  0.81557430  0.61629587  0.56817432    -0.78600
O441        O  0.87332543  0.63802434  0.50330385    -0.80100
O442        O  0.90647984  0.60402484  0.60098174    -0.79900
O443        O  0.87590200  0.60315707  0.67138770    -0.78500
Zn444      Zn  0.84826418  0.63609384  0.62634361     1.55700
O445        O  0.90814218  0.63064803  0.56718488    -0.79900
Cd446      Cd  0.87778414  0.60074170  0.61296805     1.59700
Cd447      Cd  0.84345537  0.60973758  0.55280836     1.59600
O448        O  0.86946989  0.57367306  0.59390747    -0.79900
O449        O  0.86222748  0.62146981  0.58852692    -1.90400
Cd450      Cd  0.87967360  0.63883804  0.56043174     1.59900
O451        O  0.84583954  0.58033289  0.55364620    -0.79900
O452        O  0.87620696  0.66689575  0.57867046    -0.78500
C453        C  0.80890479  0.62412840  0.59792616     0.84000
C454        C  0.86769832  0.61567898  0.69210514     0.83700
O455        O  0.85299408  0.66438525  0.62090513    -0.77500
C456        C  0.91609294  0.61648507  0.58352978     0.84500
O457        O  0.81978049  0.63155617  0.62283106    -0.77600
C458        C  0.85663321  0.56840779  0.57043862     0.84600
C459        C  0.86102135  0.62918684  0.48338299     0.84900
O460        O  0.84868449  0.61819884  0.49789099    -0.80000
O461        O  0.63043427  0.62441937  0.11970754    -0.77500
C462        C  0.61663065  0.66726445  0.20456503     0.83500
O463        O  0.66736182  0.60788701  0.23171545    -0.78600
O464        O  0.60552147  0.62683110  0.29246590    -0.80100
O465        O  0.57879861  0.59670177  0.18003905    -0.79900
O466        O  0.61534960  0.59653463  0.12073267    -0.78500
Zn467      Zn  0.63569039  0.63087633  0.17443778     1.55700
O468        O  0.57409271  0.62119856  0.21953015    -0.79900
Cd469      Cd  0.60831585  0.59370744  0.17690988     1.59700
Cd470      Cd  0.63910928  0.60167158  0.24415697     1.59600
O471        O  0.61616123  0.56652096  0.19499618    -0.79900
O472        O  0.62135293  0.61404430  0.20716285    -1.90400
Cd473      Cd  0.60159386  0.62926405  0.23478482     1.59900
O474        O  0.63654419  0.57229786  0.24206593    -0.79900
O475        O  0.60457403  0.65793409  0.22357968    -0.78500
C476        C  0.67447859  0.61767335  0.20519354     0.84000
C477        C  0.62324116  0.61000883  0.10285888     0.83700
O478        O  0.62947608  0.65891097  0.18493952    -0.77500
C479        C  0.56770884  0.60821257  0.19752813     0.84500
O480        O  0.66397921  0.62681830  0.18202880    -0.77600
C481        C  0.62722702  0.56073763  0.22122239     0.84600
C482        C  0.61858380  0.61943789  0.31285504     0.84900
O483        O  0.63254883  0.61007708  0.29877490    -0.80000
O484        O  0.62346657  0.62622181  0.61954118    -0.77500
C485        C  0.61392613  0.67168553  0.70472989     0.83500
O486        O  0.66210875  0.60893258  0.72546747    -0.78600
O487        O  0.60508178  0.63200822  0.79631197    -0.80100
O488        O  0.57036229  0.60561388  0.68767082    -0.79900
O489        O  0.60563341  0.60009402  0.62415478    -0.78500
Zn490      Zn  0.62999116  0.63414378  0.67299904     1.55700
O491        O  0.57074131  0.62937556  0.72983587    -0.79900
Cd492      Cd  0.59942367  0.59922757  0.68122541     1.59700
Cd493      Cd  0.63420871  0.60453127  0.74202120     1.59600
O494        O  0.60457612  0.57178100  0.70161506    -0.79900
O495        O  0.61591235  0.61828876  0.70822539    -1.90400
Cd496      Cd  0.59912046  0.63480814  0.73975300     1.59900
O497        O  0.62903860  0.57552839  0.74134019    -0.79900
O498        O  0.60341612  0.66299646  0.72793843    -0.78500
C499        C  0.66905933  0.61932561  0.69973793     0.84000
C500        C  0.61471977  0.61215254  0.60454970     0.83700
O501        O  0.62470357  0.66270084  0.68156546    -0.77500
C502        C  0.56174513  0.61790249  0.70836745     0.84500
O503        O  0.65847128  0.62957970  0.67858620    -0.77600
C504        C  0.61676815  0.56501085  0.72485209     0.84600
C505        C  0.61856103  0.62378548  0.81411307     0.84900
O506        O  0.63109696  0.61353571  0.79745106    -0.80000
O507        O  0.63831883  0.35526161  0.41853391    -0.77500
C508        C  0.62303769  0.31708547  0.32852055     0.83500
O509        O  0.67892187  0.37682911  0.32195955    -0.78600
O510        O  0.61957253  0.36031096  0.24497117    -0.80100
O511        O  0.58948679  0.38866426  0.35759411    -0.79900
O512        O  0.62442758  0.38391096  0.42244308    -0.78500
Zn513      Zn  0.64408375  0.35061435  0.36390186     1.55700
O514        O  0.58521714  0.36803140  0.31016294    -0.79900
Cd515      Cd  0.61881307  0.38929565  0.36588631     1.59700
Cd516      Cd  0.65141916  0.38275824  0.30109357     1.59600
O517        O  0.62733766  0.41659998  0.35165843    -0.79900
O518        O  0.63184596  0.36986763  0.33312757    -1.90400
Cd519      Cd  0.61241771  0.35718307  0.30069130     1.59900
O520        O  0.64730872  0.41214164  0.30348519    -0.79900
O521        O  0.61217867  0.32805315  0.30953067    -0.78500
C522        C  0.68422351  0.36456976  0.34643103     0.84000
C523        C  0.63173183  0.36916513  0.43786314     0.83700
O524        O  0.63627928  0.32364379  0.34958207    -0.77500
C525        C  0.57867900  0.38001437  0.33419330     0.84500
O526        O  0.67245034  0.35338416  0.36183431    -0.77600
C527        C  0.63777916  0.42308759  0.32545069     0.84600
C528        C  0.63401966  0.36659014  0.22754475     0.84900
O529        O  0.64794172  0.37463540  0.24459803    -0.80000
O530        O  0.63161350  0.36149441  0.92267427    -0.77500
C531        C  0.61797286  0.32045663  0.83135781     0.83500
O532        O  0.67531645  0.37449274  0.82189567    -0.78600
O533        O  0.61266870  0.36585253  0.74737835    -0.80100
O534        O  0.58653352  0.39403361  0.85897884    -0.79900
O535        O  0.62331739  0.39223984  0.91914880    -0.78500
Zn536      Zn  0.63789943  0.35424151  0.86890825     1.55700
O537        O  0.58096756  0.37075057  0.81729962    -0.79900
Cd538      Cd  0.61604547  0.39463529  0.86270359     1.59700
Cd539      Cd  0.64850268  0.38275215  0.80087594     1.59600
O540        O  0.62465056  0.42058446  0.84075353    -0.79900
O541        O  0.62778978  0.37292664  0.83422090    -1.90400
Cd542      Cd  0.60775360  0.36056856  0.80330716     1.59900
O543        O  0.64775947  0.41235871  0.80062212    -0.79900
O544        O  0.60830067  0.33131455  0.80983427    -0.78500
C545        C  0.67920970  0.36385875  0.85005651     0.84000
C546        C  0.62800547  0.37759221  0.93826692     0.83700
O547        O  0.62969795  0.32715301  0.85560461    -0.77500
C548        C  0.57508287  0.38387292  0.83958516     0.84500
O549        O  0.66629654  0.35533601  0.86824105    -0.77600
C550        C  0.63727695  0.42493797  0.81657306     0.84600
C551        C  0.62734225  0.37049109  0.72868709     0.84900
O552        O  0.64305530  0.37514210  0.74463080    -0.80000
O553        O  0.13252820  0.67289448  0.05466223    -0.77500
C554        C  0.11967874  0.62472915  0.13663478     0.83500
O555        O  0.16753565  0.61603628  0.01925784    -0.78600
O556        O  0.10617705  0.58338440  0.04066643    -0.80100
O557        O  0.07720984  0.64243940  0.00985568    -0.79900
O558        O  0.11379449  0.67225221  0.00361065    -0.78500
Zn559      Zn  0.13602857  0.64447883  0.06758995     1.55700
O560        O  0.07578945  0.62017573  0.05420308    -0.79900
Cd561      Cd  0.10603968  0.64414242  0.99755549     1.59700
Cd562      Cd  0.13954512  0.61248320  0.00198906     1.59600
O563        O  0.11031989  0.63577409  0.94189074    -0.79900
O564        O  0.12163577  0.62840733  0.03261980    -1.90400
Cd565      Cd  0.10398900  0.61132512  0.06039450     1.59900
O566        O  0.13666524  0.61784726  0.94508456    -0.79900
O567        O  0.11059759  0.61244072  0.11709654    -0.78500
C568        C  0.17461058  0.62642765  0.04532644     0.84000
C569        C  0.12377702  0.68134475  0.02774051     0.83700
O570        O  0.12851428  0.63856466  0.12153361    -0.77500
C571        C  0.06774192  0.63245132  0.03292847     0.84500
O572        O  0.16428923  0.63773592  0.06507023    -0.77600
C573        C  0.12350728  0.62596802  0.92614341     0.84600
C574        C  0.11840663  0.57518024  0.01943680     0.84900
O575        O  0.13237027  0.58414741  0.00537920    -0.80000
O576        O  0.12795605  0.67366014  0.55226578    -0.77500
C577        C  0.11420937  0.62865666  0.63642720     0.83500
O578        O  0.16355128  0.61750412  0.51855959    -0.78600
O579        O  0.10620149  0.58238169  0.54274430    -0.80100
O580        O  0.07172299  0.63840146  0.50952580    -0.79900
O581        O  0.10369895  0.67304014  0.51167735    -0.78500
Zn582      Zn  0.13168109  0.64558432  0.56554957     1.55700
O583        O  0.07218760  0.61598758  0.55370675    -0.79900
Cd584      Cd  0.10004347  0.64451149  0.50069312     1.59700
Cd585      Cd  0.13551654  0.61436808  0.49930953     1.59600
O586        O  0.10646321  0.64112974  0.44454854    -0.79900
O587        O  0.11730929  0.62873632  0.53248055    -1.90400
Cd588      Cd  0.10129852  0.61041979  0.56189470     1.59900
O589        O  0.13293113  0.62324198  0.44367497    -0.79900
O590        O  0.10648930  0.61446061  0.61958060    -0.78500
C591        C  0.17044362  0.62794725  0.54485957     0.84000
C592        C  0.11585251  0.68217408  0.53122168     0.83700
O593        O  0.12299678  0.64158172  0.61863763    -0.77500
C594        C  0.06312971  0.62724564  0.53175702     0.84500
O595        O  0.15988921  0.63914959  0.56429992    -0.77600
C596        C  0.12012993  0.63310003  0.42691692     0.84600
C597        C  0.11682869  0.57546633  0.51671723     0.84900
O598        O  0.12849648  0.58577504  0.49860039    -0.80000
O599        O  0.13540917  0.34042842  0.36580688    -0.77500
C600        C  0.12049373  0.38628089  0.28584776     0.83500
O601        O  0.17384105  0.39195097  0.40141459    -0.78600
O602        O  0.11802463  0.43195071  0.38145830    -0.80100
O603        O  0.08168909  0.37589010  0.41487642    -0.79900
O604        O  0.11433665  0.33929611  0.41243109    -0.78500
Zn605      Zn  0.13939073  0.36806982  0.35407293     1.55700
O606        O  0.08240969  0.40032549  0.37485777    -0.79900
Cd607      Cd  0.11014386  0.36856727  0.42308852     1.59700
Cd608      Cd  0.14658213  0.39733987  0.42114946     1.59600
O609        O  0.11673574  0.37398346  0.47934143    -0.79900
O610        O  0.12666888  0.38449884  0.38990284    -1.90400
Cd611      Cd  0.11101759  0.40431330  0.36262822     1.59900
O612        O  0.14423771  0.38976674  0.47706153    -0.79900
O613        O  0.11381488  0.40071459  0.30388247    -0.78500
C614        C  0.17928801  0.38245179  0.37259456     0.84000
C615        C  0.12528424  0.33099231  0.38860813     0.83700
O616        O  0.12931616  0.37283183  0.30242290    -0.77500
C617        C  0.07329465  0.38878898  0.39558652     0.84500
O618        O  0.16761445  0.37304106  0.35234671    -0.77600
C619        C  0.13100205  0.38180169  0.49550907     0.84600
C620        C  0.13097558  0.43783104  0.40413125     0.84900
O621        O  0.14274874  0.42648126  0.41983462    -0.80000
O622        O  0.12731779  0.34203529  0.86139094    -0.77500
C623        C  0.11372573  0.39101356  0.78707478     0.83500
O624        O  0.16946971  0.39033044  0.89889103    -0.78600
O625        O  0.11314563  0.43294378  0.88602012    -0.80100
O626        O  0.07731941  0.37613561  0.91804709    -0.79900
O627        O  0.11074020  0.34075222  0.91477903    -0.78500
Zn628      Zn  0.13279079  0.36961276  0.85157775     1.55700
O629        O  0.07719406  0.40165943  0.88081308    -0.79900
Cd630      Cd  0.10612311  0.36984629  0.92532480     1.59700
Cd631      Cd  0.14280863  0.39782704  0.91949391     1.59600
O632        O  0.11296742  0.37669857  0.98098591    -0.79900
O633        O  0.12175198  0.38561410  0.89035729    -1.90400
Cd634      Cd  0.10536265  0.40586889  0.86683204     1.59900
O635        O  0.14019559  0.39277884  0.97661097    -0.79900
O636        O  0.10669291  0.40405698  0.80821932    -0.78500
C637        C  0.17389202  0.38074798  0.86945795     0.84000
C638        C  0.11919466  0.33256476  0.88713131     0.83700
O639        O  0.12296333  0.37690712  0.80057088    -0.77500
C640        C  0.06850226  0.38935734  0.90040575     0.84500
O641        O  0.16131874  0.37253359  0.84928371    -0.77600
C642        C  0.12691871  0.38554998  0.99613396     0.84600
C643        C  0.12779069  0.43850150  0.90442069     0.84900
O644        O  0.14051975  0.42695620  0.91611622    -0.80000
O645        O  0.36671440  0.33583889  0.34159571    -0.77500
C646        C  0.38537031  0.38147039  0.41734954     0.83500
O647        O  0.33053751  0.39183750  0.30816280    -0.78600
O648        O  0.38984914  0.42450848  0.32574807    -0.80100
O649        O  0.41964539  0.36558413  0.28026202    -0.79900
O650        O  0.38537885  0.33243100  0.29134441    -0.78500
Zn651      Zn  0.36382652  0.36393173  0.35109450     1.55700
O652        O  0.42305454  0.38956404  0.32152091    -0.79900
Cd653      Cd  0.39048592  0.36093614  0.27782360     1.59700
Cd654      Cd  0.35759850  0.39408068  0.28509138     1.59600
O655        O  0.38156622  0.36595485  0.22285406    -0.79900
O656        O  0.37687710  0.37864579  0.31354237    -1.90400
Cd657      Cd  0.39557781  0.39613762  0.33902313     1.59900
O658        O  0.35693844  0.38612538  0.22886695    -0.79900
O659        O  0.39484273  0.39300063  0.39730173    -0.78500
C660        C  0.32484021  0.38167680  0.33546763     0.84000
C661        C  0.37552013  0.32534069  0.31788926     0.83700
O662        O  0.37380538  0.36964119  0.40266580    -0.77500
C663        C  0.43006536  0.37723665  0.29869643     0.84500
O664        O  0.33604990  0.37051638  0.35304725    -0.77600
C665        C  0.36800411  0.37584111  0.20869203     0.84600
C666        C  0.37763239  0.43222170  0.30380794     0.84900
O667        O  0.36499825  0.42251097  0.28647232    -0.80000
O668        O  0.36599858  0.33599003  0.84301597    -0.77500
C669        C  0.38082675  0.38504710  0.91682446     0.83500
O670        O  0.32611521  0.38876514  0.80626106    -0.78600
O671        O  0.38455341  0.42583508  0.81837911    -0.80100
O672        O  0.41692130  0.36785361  0.78397514    -0.79900
O673        O  0.38395153  0.33413000  0.79151877    -0.78500
Zn674      Zn  0.36127251  0.36415189  0.85164126     1.55700
O675        O  0.41892419  0.39215505  0.82476507    -0.79900
Cd676      Cd  0.38811829  0.36259792  0.77879363     1.59700
Cd677      Cd  0.35299778  0.39297189  0.78347665     1.59600
O678        O  0.38012184  0.36697794  0.72338825    -0.79900
O679        O  0.37316516  0.37947736  0.81339482    -1.90400
Cd680      Cd  0.39071884  0.39850666  0.83764080     1.59900
O681        O  0.35327635  0.38413671  0.72751892    -0.79900
O682        O  0.38884167  0.39734698  0.89606390    -0.78500
C683        C  0.32104911  0.37851375  0.83396101     0.84000
C684        C  0.37496721  0.32622844  0.81828954     0.83700
O685        O  0.37083807  0.37160533  0.90291864    -0.77500
C686        C  0.42668362  0.37965274  0.80334518     0.84500
O687        O  0.33300031  0.36861953  0.85263143    -0.77600
C688        C  0.36573590  0.37511261  0.70819178     0.84600
C689        C  0.37165803  0.43243249  0.79649385     0.84900
O690        O  0.35871554  0.42188054  0.78224116    -0.80000
O691        O  0.35266457  0.66573475  0.15093654    -0.77500
C692        C  0.37259169  0.61930107  0.07727537     0.83500
O693        O  0.31893206  0.60967764  0.18954963    -0.78600
O694        O  0.38007578  0.57820085  0.17264363    -0.80100
O695        O  0.40750802  0.63773150  0.21382386    -0.79900
O696        O  0.37192570  0.66969931  0.20043086    -0.78500
Zn697      Zn  0.35047022  0.63732082  0.14282531     1.55700
O698        O  0.41168241  0.61366725  0.17309435    -0.79900
Cd699      Cd  0.37813621  0.64179025  0.21567243     1.59700
Cd700      Cd  0.34652590  0.60790906  0.21123700     1.59600
O701        O  0.36932680  0.63827594  0.27093798    -0.79900
O702        O  0.36471170  0.62348298  0.18113788    -1.90400
Cd703      Cd  0.38415873  0.60631819  0.15663496     1.59900
O704        O  0.34572651  0.61721645  0.26661703    -0.79900
O705        O  0.38265060  0.60847971  0.09827597    -0.78500
C706        C  0.31206912  0.61962855  0.16273276     0.84000
C707        C  0.36147663  0.67648293  0.17415941     0.83700
O708        O  0.36031060  0.63090116  0.09093833    -0.77500
C709        C  0.41833405  0.62618311  0.19581325     0.84500
O710        O  0.32251713  0.63061381  0.14338334    -0.77600
C711        C  0.35610019  0.62853454  0.28583366     0.84600
C712        C  0.36876137  0.57035563  0.19577459     0.84900
O713        O  0.35558023  0.57968241  0.21261367    -0.80000
O714        O  0.35652361  0.66803341  0.65968589    -0.77500
C715        C  0.36294933  0.62064010  0.57458409     0.83500
O716        O  0.31255723  0.61884024  0.69209203    -0.78600
O717        O  0.36420135  0.57442178  0.66654025    -0.80100
O718        O  0.40681855  0.62468763  0.69991534    -0.79900
O719        O  0.37836554  0.66346721  0.70469152    -0.78500
Zn720      Zn  0.34815959  0.64089482  0.64531497     1.55700
O721        O  0.40205445  0.60181892  0.65700151    -0.79900
Cd722      Cd  0.37928388  0.63425868  0.71221514     1.59700
Cd723      Cd  0.33953991  0.61061631  0.71011842     1.59600
O724        O  0.37310370  0.62934463  0.76863056    -0.79900
O725        O  0.35986661  0.62206302  0.67860734    -1.90400
Cd726      Cd  0.37286998  0.60127835  0.64914072     1.59900
O727        O  0.34351622  0.61786307  0.76619191    -0.79900
O728        O  0.36881180  0.60586576  0.59203170    -0.78500
C729        C  0.30718743  0.62971251  0.66541696     0.84000
C730        C  0.36867685  0.67449151  0.68344627     0.83700
O731        O  0.35584369  0.63506552  0.59177612    -0.77500
C732        C  0.41314085  0.61181993  0.67744614     0.84500
O733        O  0.31913532  0.63893211  0.64573847    -0.77600
C734        C  0.35788467  0.62387219  0.78476187     0.84600
C735        C  0.35168333  0.56922779  0.69026620     0.84900
O736        O  0.34106587  0.58116288  0.70765367    -0.80000
C737        C  0.36952628  0.62828190  0.89090651     0.19700
C738        C  0.38532644  0.62329219  0.91322917    -0.18400
C739        C  0.38394985  0.62312916  0.95259862    -0.10700
C740        C  0.36671832  0.62817583  0.97040335     0.21900
C741        C  0.35113965  0.63376282  0.94805160    -0.20000
C742        C  0.35247174  0.63378363  0.90878425    -0.10900
C743        C  0.36454747  0.62859913  0.01206279    -0.15000
C744        C  0.37541527  0.61835257  0.03600524    -0.28900
C745        C  0.37130020  0.62802040  0.84916972    -0.03200
C746        C  0.35640489  0.62443876  0.82623731    -0.39700
H747        H  0.39871924  0.61933523  0.90014548     0.13100
H748        H  0.39647926  0.61938106  0.96885719     0.12700
H749        H  0.33782324  0.63807255  0.96103925     0.12100
H750        H  0.34020794  0.63841126  0.89259431     0.12400
H751        H  0.35300615  0.63731041  0.02339394     0.15100
H752        H  0.38641253  0.60880768  0.02534944     0.13900
H753        H  0.38535926  0.62995276  0.83711929     0.11600
H754        H  0.34260803  0.62116026  0.83817878     0.13600
C755        C  0.35844880  0.63509228  0.47079182     0.19700
C756        C  0.34284490  0.63966283  0.44766161    -0.18400
C757        C  0.34496150  0.64035924  0.40852181    -0.10700
C758        C  0.36287073  0.63693897  0.39205605     0.21900
C759        C  0.37861913  0.63318810  0.41534928    -0.20000
C760        C  0.37641556  0.63206171  0.45436707    -0.10900
C761        C  0.36557607  0.63720882  0.35072901    -0.15000
C762        C  0.35258273  0.63005873  0.32667876    -0.28900
C763        C  0.35585085  0.63414694  0.51206607    -0.03200
C764        C  0.36491923  0.62109299  0.53328136    -0.39700
H765        H  0.32895357  0.64236640  0.45986780     0.13100
H766        H  0.33266806  0.64375870  0.39122082     0.12700
H767        H  0.39257885  0.63075285  0.40324395     0.12100
H768        H  0.38880043  0.62906618  0.47170481     0.12400
H769        H  0.37927206  0.64182181  0.34008005     0.15100
H770        H  0.33954265  0.62393742  0.33747885     0.13900
H771        H  0.34570097  0.64394624  0.52504236     0.11600
H772        H  0.37393384  0.61034324  0.51997432     0.13600
C773        C  0.36328197  0.51715448  0.71472361     0.19700
C774        C  0.37921842  0.50929237  0.73307862    -0.18400
C775        C  0.37843603  0.49107787  0.74880275    -0.10700
C776        C  0.36166807  0.48023922  0.74608546     0.21900
C777        C  0.34588663  0.48798989  0.72694243    -0.20000
C778        C  0.34661888  0.50626756  0.71157368    -0.10900
C779        C  0.36038935  0.46040948  0.76047060    -0.15000
C780        C  0.37229220  0.45284638  0.78637823    -0.28900
C781        C  0.36447339  0.53671030  0.69919874    -0.03200
C782        C  0.34955400  0.54887295  0.69937860    -0.39700
H783        H  0.39227641  0.51735212  0.73554725     0.13100
H784        H  0.39113538  0.48546676  0.76218247     0.12700
H785        H  0.33291779  0.47984207  0.72379631     0.12100
H786        H  0.33424147  0.51172701  0.69675056     0.12400
H787        H  0.34915169  0.45155641  0.74873439     0.15100
H788        H  0.38325135  0.46148137  0.79952968     0.13900
H789        H  0.37841341  0.54189669  0.69110243     0.11600
H790        H  0.33603989  0.54443248  0.71108062     0.13600
C791        C  0.37650082  0.37266453  0.52294781     0.19700
C792        C  0.35998352  0.36826547  0.54319828    -0.18400
C793        C  0.36028804  0.36769858  0.58255290    -0.10700
C794        C  0.37724842  0.37135660  0.60243868     0.21900
C795        C  0.39384067  0.37543671  0.58219666    -0.20000
C796        C  0.39349494  0.37619495  0.54283950    -0.10900
C797        C  0.37834421  0.37044789  0.64411797    -0.15000
C798        C  0.36353483  0.37454461  0.66683074    -0.28900
C799        C  0.37555148  0.37248184  0.48118809    -0.03200
C800        C  0.38761925  0.38196378  0.45875327    -0.39700
H801        H  0.34678172  0.36521783  0.52848535     0.13100
H802        H  0.34736718  0.36397642  0.59719382     0.12700
H803        H  0.40712519  0.37807848  0.59692123     0.12100
H804        H  0.40663013  0.37907627  0.52820772     0.12400
H805        H  0.39222884  0.36753366  0.65660414     0.15100
H806        H  0.34993022  0.37896919  0.65496996     0.13900
H807        H  0.36381680  0.36470026  0.46839028     0.11600
H808        H  0.39875921  0.39080945  0.47072664     0.13600
C809        C  0.37712850  0.37329761  0.10194450     0.19700
C810        C  0.39327362  0.37724295  0.08020432    -0.18400
C811        C  0.39184607  0.37872779  0.04099080    -0.10700
C812        C  0.37422723  0.37600024  0.02282173     0.21900
C813        C  0.35816266  0.37179831  0.04451366    -0.20000
C814        C  0.35953270  0.37056173  0.08368660    -0.10900
C815        C  0.37228265  0.37597404  0.98125910    -0.15000
C816        C  0.38324094  0.38628481  0.95813818    -0.28900
C817        C  0.37921239  0.37159749  0.14340295    -0.03200
C818        C  0.36506680  0.37592143  0.16754092    -0.39700
H819        H  0.40701934  0.37918898  0.09362218     0.13100
H820        H  0.40461534  0.38143740  0.02495993     0.12700
H821        H  0.34450944  0.36934620  0.03104484     0.12100
H822        H  0.34690556  0.36696848  0.09942694     0.12400
H823        H  0.36089072  0.36740101  0.96927434     0.15100
H824        H  0.39385224  0.39594793  0.96956202     0.13900
H825        H  0.39321565  0.36792460  0.15451066     0.11600
H826        H  0.35149703  0.38124411  0.15703379     0.13600
C827        C  0.36735395  0.52116755  0.24338029     0.19700
C828        C  0.36911299  0.51518500  0.28093054    -0.18400
C829        C  0.37043788  0.49575421  0.28949606    -0.10700
C830        C  0.36968007  0.48194546  0.26056219     0.21900
C831        C  0.36775112  0.48795018  0.22310611    -0.20000
C832        C  0.36673791  0.50733757  0.21451501    -0.10900
C833        C  0.36952433  0.46119491  0.26833245    -0.15000
C834        C  0.37820207  0.45307383  0.29814645    -0.28900
C835        C  0.36505666  0.54179602  0.23524641    -0.03200
C836        C  0.37118773  0.54978800  0.20316937    -0.39700
H837        H  0.36936616  0.52557591  0.30367924     0.13100
H838        H  0.37141698  0.49159198  0.31875186     0.12700
H839        H  0.36687578  0.47757390  0.20039231     0.12100
H840        H  0.36485004  0.51141921  0.18537862     0.12400
H841        H  0.36256121  0.45209894  0.24757697     0.15100
H842        H  0.38647485  0.46166787  0.31773984     0.13900
H843        H  0.35874090  0.55081842  0.25698110     0.11600
H844        H  0.37903901  0.54128294  0.18267299     0.13600
C845        C  0.22837627  0.38655366  0.86384784     0.19700
C846        C  0.24318863  0.38601301  0.89045227    -0.18400
C847        C  0.26219953  0.38595594  0.87888516    -0.10700
C848        C  0.26677135  0.38667824  0.84033144     0.21900
C849        C  0.25195792  0.38780477  0.81377074    -0.20000
C850        C  0.23292783  0.38761194  0.82532562    -0.10900
C851        C  0.28682287  0.38692012  0.82719177    -0.15000
C852        C  0.30096492  0.37804547  0.84592781    -0.28900
C853        C  0.20837173  0.38693351  0.87721070    -0.03200
C854        C  0.19393457  0.37939742  0.85718486    -0.39700
H855        H  0.24002969  0.38555615  0.92028851     0.13100
H856        H  0.27325489  0.38575520  0.90023796     0.12700
H857        H  0.25512728  0.38871442  0.78398655     0.12100
H858        H  0.22184190  0.38871003  0.80413783     0.12400
H859        H  0.28989204  0.39401914  0.80082148     0.15100
H860        H  0.29777818  0.36991482  0.87100496     0.13900
H861        H  0.20555092  0.39317686  0.90478541     0.11600
H862        H  0.19679901  0.37214699  0.83061418     0.13600
C863        C  0.12006926  0.38162203  0.68055109     0.19700
C864        C  0.13564487  0.37480812  0.65960089    -0.18400
C865        C  0.13496968  0.37437379  0.62028463    -0.10700
C866        C  0.11855386  0.38059504  0.60101494     0.21900
C867        C  0.10284768  0.38718755  0.62191254    -0.20000
C868        C  0.10360849  0.38784013  0.66135321    -0.10900
C869        C  0.11722870  0.37968940  0.55929169    -0.15000
C870        C  0.13246894  0.38192323  0.53695343    -0.28900
C871        C  0.12128129  0.38091156  0.72225257    -0.03200
C872        C  0.11128656  0.39234208  0.74575965    -0.39700
H873        H  0.14838442  0.36970108  0.67374891     0.13100
H874        H  0.14713145  0.36869001  0.60513544     0.12700
H875        H  0.08996941  0.39184564  0.60766390     0.12100
H876        H  0.09115190  0.39270117  0.67662890     0.12400
H877        H  0.10319312  0.37813526  0.54660395     0.15100
H878        H  0.14627040  0.38516381  0.54928406     0.13900
H879        H  0.13157298  0.37093603  0.73409535     0.11600
H880        H  0.10178608  0.40324843  0.73471666     0.13600
C881        C  0.11336043  0.38730692  0.10141843     0.19700
C882        C  0.10525042  0.37424089  0.12620747    -0.18400
C883        C  0.10501874  0.37791079  0.16498423    -0.10700
C884        C  0.11264760  0.39492028  0.17976546     0.21900
C885        C  0.11987500  0.40845433  0.15481951    -0.20000
C886        C  0.12039292  0.40463615  0.11599156    -0.10900
C887        C  0.11366121  0.39842057  0.22112789    -0.15000
C888        C  0.11807155  0.38416018  0.24471509    -0.28900
C889        C  0.11358784  0.38278380  0.06044342    -0.03200
C890        C  0.12755398  0.38854539  0.03742931    -0.39700
H891        H  0.09938642  0.36099303  0.11559012     0.13100
H892        H  0.09883874  0.36742268  0.18341510     0.12700
H893        H  0.12557823  0.42176109  0.16548491     0.12100
H894        H  0.12612179  0.41531609  0.09742655     0.12400
H895        H  0.11226306  0.41290945  0.23190138     0.15100
H896        H  0.12111767  0.37008625  0.23305440     0.13900
H897        H  0.10211210  0.37410591  0.04912416     0.11600
H898        H  0.13950849  0.39646344  0.04895653     0.13600
C899        C  0.23310652  0.39232086  0.36829092     0.19700
C900        C  0.24796637  0.39175781  0.39478289    -0.18400
C901        C  0.26694276  0.39219783  0.38302715    -0.10700
C902        C  0.27137830  0.39347205  0.34446768     0.21900
C903        C  0.25650004  0.39503918  0.31817242    -0.20000
C904        C  0.23752559  0.39432146  0.32988422    -0.10900
C905        C  0.29135947  0.39311301  0.33098853    -0.15000
C906        C  0.30491556  0.38272144  0.34827959    -0.28900
C907        C  0.21311849  0.39131976  0.38142095    -0.03200
C908        C  0.19945267  0.38264301  0.36107265    -0.39700
H909        H  0.24488211  0.39062824  0.42456637     0.13100
H910        H  0.27809805  0.39165630  0.40416494     0.12700
H911        H  0.25957352  0.39639301  0.28842501     0.12100
H912        H  0.22634174  0.39549630  0.30890674     0.12400
H913        H  0.29471081  0.40058932  0.30517528     0.15100
H914        H  0.30127227  0.37427221  0.37268941     0.13900
H915        H  0.20972753  0.39732462  0.40894716     0.11600
H916        H  0.20308477  0.37558384  0.33466366     0.13600
C917        C  0.21993424  0.63541083  0.59223335     0.19700
C918        C  0.22559608  0.64010461  0.62919956    -0.18400
C919        C  0.24488245  0.64006971  0.63955799    -0.10700
C920        C  0.25904435  0.63554055  0.61295753     0.21900
C921        C  0.25344897  0.63123292  0.57580053    -0.20000
C922        C  0.23413058  0.63103714  0.56552888    -0.10900
C923        C  0.27972842  0.63571561  0.62274535    -0.15000
C924        C  0.28651608  0.63120804  0.65716821    -0.28900
C925        C  0.19921384  0.63610838  0.58251520    -0.03200
C926        C  0.19122464  0.62691657  0.55287115    -0.39700
H927        H  0.21502406  0.64381784  0.65023380     0.13100
H928        H  0.24866906  0.64397815  0.66818108     0.12700
H929        H  0.26408304  0.62791774  0.55464301     0.12100
H930        H  0.23047006  0.62788282  0.53651981     0.12400
H931        H  0.28977372  0.63832094  0.60016495     0.15100
H932        H  0.27673688  0.62688519  0.67907237     0.13900
H933        H  0.19000745  0.64414513  0.60151639     0.11600
H934        H  0.19990202  0.61798560  0.53454885     0.13600
C935        C  0.11972237  0.49006718  0.43184990     0.19700
C936        C  0.10458756  0.49832558  0.45219751    -0.18400
C937        C  0.10619729  0.51667201  0.46794754    -0.10700
C938        C  0.12297462  0.52725524  0.46323801     0.21900
C939        C  0.13788642  0.51914956  0.44204606    -0.20000
C940        C  0.13635477  0.50078040  0.42668144    -0.10900
C941        C  0.12513087  0.54717638  0.47760838    -0.15000
C942        C  0.11500956  0.55499896  0.50621047    -0.28900
C943        C  0.11782430  0.47030285  0.41645574    -0.03200
C944        C  0.13282800  0.45830896  0.41356001    -0.39700
H945        H  0.09154062  0.49046927  0.45625079     0.13100
H946        H  0.09414587  0.52261341  0.48302731     0.12700
H947        H  0.15082580  0.52708863  0.43732117     0.12100
H948        H  0.14810956  0.49513676  0.41026941     0.12400
H949        H  0.13576199  0.55583453  0.46377547     0.15100
H950        H  0.10477959  0.54652073  0.52145470     0.13900
H951        H  0.10361015  0.46492033  0.41079167     0.11600
H952        H  0.14677990  0.46301658  0.42293672     0.13600
C953        C  0.10928119  0.62686763  0.82110217     0.19700
C954        C  0.10216891  0.64101150  0.79704322    -0.18400
C955        C  0.10138922  0.63785122  0.75813106    -0.10700
C956        C  0.10744643  0.62031905  0.74255904     0.21900
C957        C  0.11371263  0.60583257  0.76673047    -0.20000
C958        C  0.11479306  0.60910553  0.80566098    -0.10900
C959        C  0.10764208  0.61708332  0.70117486    -0.15000
C960        C  0.11301988  0.63093418  0.67768670    -0.28900
C961        C  0.11009156  0.63080742  0.86223453    -0.03200
C962        C  0.12344762  0.62310928  0.88486448    -0.39700
H963        H  0.09749247  0.65465136  0.80834368     0.13100
H964        H  0.09597631  0.64911145  0.74023096     0.12700
H965        H  0.11818973  0.59213829  0.75538769     0.12100
H966        H  0.11971387  0.59765744  0.82361055     0.12400
H967        H  0.10466025  0.60290672  0.69017532     0.15100
H968        H  0.11747337  0.64458108  0.68933401     0.13900
H969        H  0.09967285  0.64071851  0.87399782     0.11600
H970        H  0.13451499  0.61400408  0.87294581     0.13600
C971        C  0.12971902  0.63182914  0.24259966     0.19700
C972        C  0.12956950  0.64782360  0.26654658    -0.18400
C973        C  0.13012693  0.64562073  0.30562863    -0.10700
C974        C  0.13116986  0.62732154  0.32147155     0.21900
C975        C  0.13211800  0.61134366  0.29752836    -0.20000
C976        C  0.13124621  0.61353223  0.25841112    -0.10900
C977        C  0.13135636  0.62462945  0.36284131    -0.15000
C978        C  0.12088401  0.63577465  0.38584990    -0.28900
C979        C  0.12880272  0.63469069  0.20128297    -0.03200
C980        C  0.12018192  0.62227251  0.17788134    -0.39700
H981        H  0.12873572  0.66205775  0.25497049     0.13100
H982        H  0.12993588  0.65824307  0.32340173     0.12700
H983        H  0.13320033  0.59713203  0.30914919     0.12100
H984        H  0.13202804  0.60093458  0.24063324     0.12400
H985        H  0.13921350  0.61256227  0.37428482     0.15100
H986        H  0.11175625  0.64680464  0.37399688     0.13900
H987        H  0.13472851  0.64772797  0.19006211     0.11600
H988        H  0.11325578  0.60978530  0.18922463     0.13600
C989        C  0.22379307  0.62839207  0.09476459     0.19700
C990        C  0.22952765  0.62659774  0.13255621    -0.18400
C991        C  0.24887361  0.62539347  0.14220824    -0.10700
C992        C  0.26294599  0.62620155  0.11415157     0.21900
C993        C  0.25720238  0.62812779  0.07639858    -0.20000
C994        C  0.23786494  0.62909719  0.06671077    -0.10900
C995        C  0.28366967  0.62640762  0.12326942    -0.15000
C996        C  0.29140193  0.61850342  0.15435047    -0.28900
C997        C  0.20313045  0.63043746  0.08585289    -0.03200
C998        C  0.19533715  0.62500425  0.05273394    -0.39700
H999        H  0.21898337  0.62623859  0.15474427     0.13100
H1000       H  0.25272540  0.62445582  0.17169260     0.12700
H1001       H  0.26774849  0.62905094  0.05429409     0.12100
H1002       H  0.23403907  0.63098893  0.03740286     0.12400
H1003       H  0.29302048  0.63302792  0.10292656     0.15100
H1004       H  0.28251394  0.61078550  0.17388902     0.13900
H1005       H  0.19385057  0.63575655  0.10809300     0.11600
H1006       H  0.20412484  0.61821697  0.03130861     0.13600
C1007       C  0.11855331  0.49079707  0.93281914     0.19700
C1008       C  0.10332006  0.49991848  0.95133258    -0.18400
C1009       C  0.10573083  0.51784216  0.96835146    -0.10700
C1010       C  0.12348423  0.52701522  0.96693648     0.21900
C1011       C  0.13849468  0.51812173  0.94742882    -0.20000
C1012       C  0.13609755  0.50027220  0.93050671    -0.10900
C1013       C  0.12670073  0.54639635  0.98274788    -0.15000
C1014       C  0.11573365  0.55489830  0.00916066    -0.28900
C1015       C  0.11588989  0.47131529  0.91685719    -0.03200
C1016       C  0.13041228  0.45876916  0.91403464    -0.39700
H1017       H  0.08958338  0.49304800  0.95304040     0.13100
H1018       H  0.09359745  0.52452670  0.98188641     0.12700
H1019       H  0.15217857  0.52505964  0.94514285     0.12100
H1020       H  0.14798205  0.49409036  0.91528118     0.12400
H1021       H  0.13868496  0.55418782  0.97139604     0.15100
H1022       H  0.10398035  0.54735898  0.02184169     0.13900
H1023       H  0.10148240  0.46659520  0.91072554     0.11600
H1024       H  0.14456234  0.46280652  0.92342631     0.13600
C1025       C  0.48046720  0.38518182  0.82380350     0.19700
C1026       C  0.49223843  0.39976082  0.83765661    -0.18400
C1027       C  0.51208224  0.39746368  0.83826675    -0.10700
C1028       C  0.52053556  0.38033519  0.82540118     0.21900
C1029       C  0.50871641  0.36570360  0.81208382    -0.20000
C1030       C  0.48895231  0.36798625  0.81151814    -0.10900
C1031       C  0.54149712  0.37720311  0.82391815    -0.15000
C1032       C  0.55440355  0.38763958  0.84300850    -0.28900
C1033       C  0.45943652  0.38803488  0.82379351    -0.03200
C1034       C  0.44762301  0.37815378  0.80103835    -0.39700
H1035       H  0.48605876  0.41309794  0.84757267     0.13100
H1036       H  0.52063269  0.40926200  0.84811001     0.12700
H1037       H  0.51481724  0.35231836  0.80220293     0.12100
H1038       H  0.48044660  0.35608290  0.80201408     0.12400
H1039       H  0.54653039  0.36536382  0.80649424     0.15100
H1040       H  0.54989797  0.39909963  0.86179032     0.13900
H1041       H  0.45352343  0.39861622  0.84311168     0.11600
H1042       H  0.45333111  0.36810790  0.78051752     0.13600
C1043       C  0.48427709  0.38396773  0.31299369     0.19700
C1044       C  0.49524048  0.38910184  0.34460261    -0.18400
C1045       C  0.51506559  0.38688448  0.34445939    -0.10700
C1046       C  0.52446884  0.37970721  0.31227892     0.21900
C1047       C  0.51350618  0.37487473  0.28043208    -0.20000
C1048       C  0.49366280  0.37705200  0.28061863    -0.10900
C1049       C  0.54546357  0.37629455  0.31116522    -0.15000
C1050       C  0.55797429  0.38413563  0.33559442    -0.28900
C1051       C  0.46318377  0.38605004  0.31512968    -0.03200
C1052       C  0.45094154  0.37601930  0.29352076    -0.39700
H1053       H  0.48838645  0.39447477  0.36990373     0.13100
H1054       H  0.52277856  0.39038340  0.36997864     0.12700
H1055       H  0.52033895  0.36936941  0.25521054     0.12100
H1056       H  0.48582929  0.37344152  0.25528053     0.12400
H1057       H  0.55086747  0.36705919  0.28882537     0.15100
H1058       H  0.55314240  0.39407699  0.35713763     0.13900
H1059       H  0.45750873  0.39536075  0.33707503     0.11600
H1060       H  0.45623016  0.36584671  0.27281104     0.13600
C1061       C  0.63583059  0.37769743  0.62265533     0.19700
C1062       C  0.65055905  0.37300215  0.59763298    -0.18400
C1063       C  0.64759359  0.37402842  0.55871108    -0.10700
C1064       C  0.62989794  0.38011218  0.54413753     0.21900
C1065       C  0.61543378  0.38560379  0.56914870    -0.20000
C1066       C  0.61828774  0.38426596  0.60807046    -0.10900
C1067       C  0.62645719  0.38119765  0.50297085    -0.15000
C1068       C  0.63360421  0.36802085  0.47915907    -0.28900
C1069       C  0.63918232  0.37607503  0.66383076    -0.03200
C1070       C  0.62525130  0.37089884  0.68733920    -0.39700
H1071       H  0.66427792  0.36825077  0.60822500     0.13100
H1072       H  0.65922398  0.37027998  0.54004372     0.12700
H1073       H  0.60182090  0.39064847  0.55853228     0.12100
H1074       H  0.60684743  0.38862285  0.62669353     0.12400
H1075       H  0.61748239  0.39265441  0.49227854     0.15100
H1076       H  0.64151298  0.35592450  0.49034421     0.13900
H1077       H  0.65340793  0.37871629  0.67478164     0.11600
H1078       H  0.61135695  0.36722476  0.67590764     0.13600
C1079       C  0.63902418  0.36766609  0.04291885     0.19700
C1080       C  0.63755928  0.35159425  0.06595100    -0.18400
C1081       C  0.64004946  0.35321919  0.10494118    -0.10700
C1082       C  0.64430521  0.37096080  0.12162231     0.21900
C1083       C  0.64671932  0.38683971  0.09845711    -0.20000
C1084       C  0.64399757  0.38526964  0.05946965    -0.10900
C1085       C  0.64586450  0.37326207  0.16312144    -0.15000
C1086       C  0.63415195  0.36395164  0.18630525    -0.28900
C1087       C  0.63594140  0.36542257  0.00170265    -0.03200
C1088       C  0.62983354  0.37972992  0.97954508    -0.39700
H1089       H  0.63416969  0.33780516  0.05380604     0.13100
H1090       H  0.63867316  0.34058118  0.12200967     0.12700
H1091       H  0.65027847  0.40057155  0.11065032     0.12100
H1092       H  0.64600161  0.39780595  0.04242168     0.12400
H1093       H  0.65560955  0.38382279  0.17453564     0.15100
H1094       H  0.62333943  0.35463616  0.17441174     0.13900
H1095       H  0.63842103  0.35138209  0.98937687     0.11600
H1096       H  0.62646871  0.39359519  0.99172130     0.13600
C1097       C  0.46790242  0.61629908  0.68780559     0.19700
C1098       C  0.47990508  0.63180595  0.69500391    -0.18400
C1099       C  0.49969483  0.62961755  0.69392149    -0.10700
C1100       C  0.50805084  0.61168791  0.68624011     0.21900
C1101       C  0.49608197  0.59623014  0.67810519    -0.20000
C1102       C  0.47620610  0.59843224  0.67910430    -0.10900
C1103       C  0.52913505  0.60884683  0.68640244    -0.15000
C1104       C  0.54074193  0.61962961  0.70792505    -0.28900
C1105       C  0.44693627  0.61934961  0.69102721    -0.03200
C1106       C  0.43387216  0.60810770  0.67438851    -0.39700
H1107       H  0.47392991  0.64574979  0.70143531     0.13100
H1108       H  0.50836311  0.64207972  0.69885441     0.12700
H1109       H  0.50213133  0.58229757  0.67185401     0.12100
H1110       H  0.46750321  0.58601430  0.67403905     0.12400
H1111       H  0.53513621  0.59731949  0.66946630     0.15100
H1112       H  0.53466719  0.63041349  0.72651067     0.13900
H1113       H  0.44208311  0.63183359  0.70671635     0.11600
H1114       H  0.43835650  0.59618325  0.65680997     0.13600
C1115       C  0.62712618  0.47802494  0.79575648     0.19700
C1116       C  0.61025086  0.48771539  0.78602804    -0.18400
C1117       C  0.61076737  0.50635802  0.77232622    -0.10700
C1118       C  0.62823671  0.51582750  0.76849383     0.21900
C1119       C  0.64508862  0.50628628  0.77900504    -0.20000
C1120       C  0.64459360  0.48754027  0.79224516    -0.10900
C1121       C  0.62926041  0.53603150  0.75624479    -0.15000
C1122       C  0.61619474  0.54441593  0.73368509    -0.28900
C1123       C  0.62588205  0.45823648  0.81030100    -0.03200
C1124       C  0.63975118  0.44506221  0.80556613    -0.39700
H1125       H  0.59659467  0.48080031  0.78894167     0.13100
H1126       H  0.59743036  0.51345695  0.76576368     0.12700
H1127       H  0.65869527  0.51338773  0.77702160     0.12100
H1128       H  0.65783950  0.48072503  0.80048622     0.12400
H1129       H  0.64136916  0.54427899  0.76611588     0.15100
H1130       H  0.60460452  0.53612108  0.72181456     0.13900
H1131       H  0.61249129  0.45396288  0.82285063     0.11600
H1132       H  0.65257850  0.44864304  0.79026231     0.13600
C1133       C  0.47291523  0.61685299  0.19073742     0.19700
C1134       C  0.48522332  0.60932406  0.16314246    -0.18400
C1135       C  0.50502251  0.60934995  0.16853739    -0.10700
C1136       C  0.51299638  0.61675972  0.20203198     0.21900
C1137       C  0.50068582  0.62422486  0.22964284    -0.20000
C1138       C  0.48090859  0.62416474  0.22428798    -0.10900
C1139       C  0.53398304  0.61770965  0.20872064    -0.15000
C1140       C  0.54688560  0.60642661  0.19116049    -0.28900
C1141       C  0.45190874  0.61622974  0.18399486    -0.03200
C1142       C  0.43917524  0.62744699  0.20223066    -0.39700
H1143       H  0.47949638  0.60356638  0.13705004     0.13100
H1144       H  0.51396061  0.60390797  0.14609384     0.12700
H1145       H  0.50640249  0.63000711  0.25571407     0.12100
H1146       H  0.47201764  0.62958104  0.24682143     0.12400
H1147       H  0.53896395  0.62793833  0.22964551     0.15100
H1148       H  0.54220525  0.59551007  0.17145081     0.13900
H1149       H  0.44677684  0.60635207  0.16255084     0.11600
H1150       H  0.44400888  0.63805938  0.22243047     0.13600
C1151       C  0.63165857  0.61852611  0.91874698     0.19700
C1152       C  0.63560635  0.60243467  0.94067731    -0.18400
C1153       C  0.63514744  0.60367153  0.97997318    -0.10700
C1154       C  0.63097399  0.62113522  0.99803649     0.21900
C1155       C  0.62788986  0.63742237  0.97609475    -0.20000
C1156       C  0.62807831  0.63613511  0.93675034    -0.10900
C1157       C  0.63011378  0.62280969  0.03965914    -0.15000
C1158       C  0.62414608  0.60846814  0.06145610    -0.28900
C1159       C  0.63149532  0.61649037  0.87719868    -0.03200
C1160       C  0.61946637  0.62650070  0.85528579    -0.39700
H1161       H  0.63869998  0.58884168  0.92739356     0.13100
H1162       H  0.63826541  0.59098443  0.99610409     0.12700
H1163       H  0.62500686  0.65108912  0.98942340     0.12100
H1164       H  0.62558493  0.64891799  0.92053281     0.12400
H1165       H  0.63362924  0.63646665  0.05250340     0.15100
H1166       H  0.61935669  0.59523066  0.04860109     0.13900
H1167       H  0.64054084  0.60555045  0.86461880     0.11600
H1168       H  0.60945347  0.63651427  0.86795795     0.13600
C1169       C  0.62636474  0.61441381  0.41978085     0.19700
C1170       C  0.62810035  0.59860772  0.44354240    -0.18400
C1171       C  0.62690425  0.60089324  0.48266351    -0.10700
C1172       C  0.62426983  0.61913101  0.49872289     0.21900
C1173       C  0.62328067  0.63500910  0.47500942    -0.20000
C1174       C  0.62413698  0.63268644  0.43587847    -0.10900
C1175       C  0.62317077  0.62209752  0.54008238    -0.15000
C1176       C  0.61536702  0.60929116  0.56330538    -0.28900
C1177       C  0.62752695  0.61155233  0.37840579    -0.03200
C1178       C  0.61742622  0.62222994  0.35403462    -0.39700
H1179       H  0.63016713  0.58444745  0.43177172     0.13100
H1180       H  0.62836933  0.58843054  0.50026925     0.12700
H1181       H  0.62162112  0.64921796  0.48679060     0.12100
H1182       H  0.62337289  0.64522019  0.41831211     0.12400
H1183       H  0.62826533  0.63555980  0.55151676     0.15100
H1184       H  0.60914955  0.59634188  0.55182268     0.13900
H1185       H  0.63619378  0.59977158  0.36784780     0.11600
H1186       H  0.60755609  0.63301292  0.36455942     0.13600
C1187       C  0.64042876  0.51215289  0.26531984     0.19700
C1188       C  0.64170612  0.50597310  0.30277858    -0.18400
C1189       C  0.64346567  0.48655539  0.31099415    -0.10700
C1190       C  0.64421315  0.47289374  0.28174411     0.21900
C1191       C  0.64376198  0.47915771  0.24425604    -0.20000
C1192       C  0.64176180  0.49856545  0.23605042    -0.10900
C1193       C  0.64550108  0.45207088  0.28920226    -0.15000
C1194       C  0.63831119  0.44398707  0.32032812    -0.28900
C1195       C  0.63836628  0.53288754  0.25784912    -0.03200
C1196       C  0.62930438  0.53997115  0.22738432    -0.39700
H1197       H  0.64110056  0.51620047  0.32580500     0.13100
H1198       H  0.64443579  0.48235101  0.34019729     0.12700
H1199       H  0.64464847  0.46896306  0.22121165     0.12100
H1200       H  0.64150524  0.50288876  0.20685990     0.12400
H1201       H  0.65123878  0.44294737  0.26700650     0.15100
H1202       H  0.63131454  0.45277507  0.34154448     0.13900
H1203       H  0.64372318  0.54268048  0.27924001     0.11600
H1204       H  0.62275785  0.53039010  0.20700934     0.13600
C1205       C  0.00987953  0.61953045  0.55628655     0.19700
C1206       C  0.00014560  0.61416413  0.58900518    -0.18400
C1207       C  0.98024912  0.61570059  0.59110219    -0.10700
C1208       C  0.96959279  0.62253830  0.56025814     0.21900
C1209       C  0.97928690  0.62776132  0.52749212    -0.20000
C1210       C  0.99913264  0.62609497  0.52527917    -0.10900
C1211       C  0.94848936  0.62495265  0.56152221    -0.15000
C1212       C  0.93709577  0.61419403  0.58297481    -0.28900
C1213       C  0.03112744  0.61803122  0.55554737    -0.03200
C1214       C  0.04204107  0.62790603  0.53153526    -0.39700
H1215       H  0.00799991  0.60904417  0.61330978     0.13100
H1216       H  0.97334490  0.61193538  0.61717043     0.12700
H1217       H  0.97143071  0.63298443  0.50327734     0.12100
H1218       H  0.00585815  0.62978994  0.49902805     0.12400
H1219       H  0.94205381  0.63539507  0.54280842     0.15100
H1220       H  0.94322033  0.60289364  0.60000584     0.13900
H1221       H  0.03805054  0.60917498  0.57664243     0.11600
H1222       H  0.03546427  0.63761404  0.51162849     0.13600
C1223       C  0.71941166  0.62781287  0.65891847     0.19700
C1224       C  0.72612221  0.63195478  0.62267603    -0.18400
C1225       C  0.74567545  0.63198566  0.61500276    -0.10700
C1226       C  0.75901794  0.62801320  0.64363806     0.21900
C1227       C  0.75234641  0.62427967  0.68006424    -0.20000
C1228       C  0.73279044  0.62409403  0.68767976    -0.10900
C1229       C  0.77994432  0.62837998  0.63696188    -0.15000
C1230       C  0.78798948  0.62440322  0.60334562    -0.28900
C1231       C  0.69846215  0.62814938  0.66570606    -0.03200
C1232       C  0.68998025  0.61920055  0.69454284    -0.39700
H1233       H  0.71617107  0.63516368  0.60011969     0.13100
H1234       H  0.75027052  0.63551682  0.58687132     0.12700
H1235       H  0.76232967  0.62145470  0.70276349     0.12100
H1236       H  0.72832051  0.62143709  0.71625992     0.12400
H1237       H  0.78911934  0.63109827  0.66115235     0.15100
H1238       H  0.77913146  0.62029372  0.57951602     0.13900
H1239       H  0.68958070  0.63549305  0.64516063     0.11600
H1240       H  0.69840708  0.61090473  0.71429160     0.13600
C1241       C  0.01438701  0.62727890  0.05888662     0.19700
C1242       C  0.00385724  0.61235957  0.07435723    -0.18400
C1243       C  0.98398317  0.61336908  0.07621195    -0.10700
C1244       C  0.97405597  0.62957300  0.06315504     0.21900
C1245       C  0.98458171  0.64456632  0.04779783    -0.20000
C1246       C  0.00451558  0.64352898  0.04584705    -0.10900
C1247       C  0.95281160  0.63096796  0.06375886    -0.15000
C1248       C  0.94185452  0.62034384  0.08641528    -0.28900
C1249       C  0.03554566  0.62525552  0.05741649    -0.03200
C1250       C  0.04683009  0.63538411  0.03452803    -0.39700
H1251       H  0.01103608  0.59965746  0.08453603     0.13100
H1252       H  0.97655337  0.60117727  0.08711654     0.12700
H1253       H  0.97735223  0.65720076  0.03744297     0.12100
H1254       H  0.01203802  0.65557788  0.03455337     0.12400
H1255       H  0.94599112  0.64114826  0.04500932     0.15100
H1256       H  0.94841048  0.61071782  0.10648236     0.13900
H1257       H  0.04203735  0.61434147  0.07498207     0.11600
H1258       H  0.04069462  0.64583418  0.01557392     0.13600
C1259       C  0.86555378  0.62858439  0.79798416     0.19700
C1260       C  0.85097746  0.63574834  0.82114871    -0.18400
C1261       C  0.85355470  0.63709772  0.86011728    -0.10700
C1262       C  0.87091145  0.63148476  0.87675525     0.21900
C1263       C  0.88577497  0.62497914  0.85350795    -0.20000
C1264       C  0.88310357  0.62339151  0.81445496    -0.10900
C1265       C  0.87368904  0.63211314  0.91825134    -0.15000
C1266       C  0.85941470  0.62815139  0.94198889    -0.28900
C1267       C  0.86219920  0.62775621  0.75669062    -0.03200
C1268       C  0.87094558  0.61527945  0.73330911    -0.39700
H1269       H  0.83747327  0.64019049  0.80905724     0.13100
H1270       H  0.84200764  0.64271625  0.87712132     0.12700
H1271       H  0.89934775  0.62081841  0.86565828     0.12100
H1272       H  0.89486616  0.61842440  0.79725668     0.12400
H1273       H  0.88798522  0.63424928  0.92933746     0.15100
H1274       H  0.84556586  0.62420359  0.93070534     0.13900
H1275       H  0.85164323  0.63757747  0.74526720     0.11600
H1276       H  0.88080493  0.60470190  0.74440117     0.13600
C1277       C  0.85924207  0.62225639  0.29744069     0.19700
C1278       C  0.85795783  0.63901581  0.31922275    -0.18400
C1279       C  0.85629140  0.63816703  0.35840950    -0.10700
C1280       C  0.85561523  0.62045234  0.37658212     0.21900
C1281       C  0.85638168  0.60368490  0.35473553    -0.20000
C1282       C  0.85832028  0.60453006  0.31554913    -0.10900
C1283       C  0.85374734  0.61899977  0.41810786    -0.15000
C1284       C  0.86147862  0.63173661  0.44214496    -0.28900
C1285       C  0.86042738  0.62390589  0.25586692    -0.03200
C1286       C  0.86836469  0.61058686  0.23312316    -0.39700
H1287       H  0.85828840  0.65284470  0.30584181     0.13100
H1288       H  0.85517488  0.65136531  0.37429559     0.12700
H1289       H  0.85562575  0.58987335  0.36809424     0.12100
H1290       H  0.85864903  0.59133697  0.29954426     0.12400
H1291       H  0.84705077  0.60632802  0.42926621     0.15100
H1292       H  0.86962078  0.64359358  0.43136433     0.13900
H1293       H  0.85498999  0.63703021  0.24360199     0.11600
H1294       H  0.87492195  0.59787866  0.24487026     0.13600
C1295       C  0.72462667  0.62474947  0.16262635     0.19700
C1296       C  0.73097374  0.62591161  0.12523076    -0.18400
C1297       C  0.75044138  0.62594629  0.11694762    -0.10700
C1298       C  0.76406479  0.62500977  0.14605012     0.21900
C1299       C  0.75775601  0.62424055  0.18352540    -0.20000
C1300       C  0.73825418  0.62398749  0.19180854    -0.10900
C1301       C  0.78487281  0.62569941  0.13837981    -0.15000
C1302       C  0.79283723  0.61897428  0.10635639    -0.28900
C1303       C  0.70373442  0.62507139  0.16978241    -0.03200
C1304       C  0.69546823  0.61806732  0.20093908    -0.39700
H1305       H  0.72079944  0.62678801  0.10224233     0.13100
H1306       H  0.75474574  0.62715789  0.08783197     0.12700
H1307       H  0.76797076  0.62380145  0.20649277     0.12100
H1308       H  0.73397069  0.62362931  0.22102785     0.12400
H1309       H  0.79404771  0.63121931  0.16062481     0.15100
H1310       H  0.78405697  0.61209412  0.08504964     0.13900
H1311       H  0.69465925  0.63048113  0.14731727     0.11600
H1312       H  0.70407951  0.61151352  0.22282433     0.13600
C1313       C  0.01601836  0.38211060  0.92868112     0.19700
C1314       C  0.00735169  0.37648117  0.96227663    -0.18400
C1315       C  0.98769333  0.37858722  0.96724166    -0.10700
C1316       C  0.97613719  0.38604645  0.93820837     0.21900
C1317       C  0.98484241  0.39159980  0.90452408    -0.20000
C1318       C  0.00452521  0.38958749  0.89965756    -0.10900
C1319       C  0.95505349  0.38815439  0.94160804    -0.15000
C1320       C  0.94462880  0.37897810  0.96742692    -0.28900
C1321       C  0.03700369  0.37986143  0.92493173    -0.03200
C1322       C  0.04754246  0.39088309  0.90240157    -0.39700
H1323       H  0.01588506  0.37070985  0.98507178     0.13100
H1324       H  0.98181486  0.37456206  0.99407608     0.12700
H1325       H  0.97633555  0.39730517  0.88162303     0.12100
H1326       H  0.01057638  0.39360114  0.87292252     0.12400
H1327       H  0.94771154  0.39674489  0.92062923     0.15100
H1328       H  0.95144613  0.36957155  0.98754825     0.13900
H1329       H  0.04412108  0.36953171  0.94293748     0.11600
H1330       H  0.04078298  0.40203086  0.88592035     0.13600
C1331       C  0.76668543  0.37309497  0.91420161     0.19700
C1332       C  0.74933784  0.37460048  0.93341388    -0.18400
C1333       C  0.73208326  0.37398648  0.91354617    -0.10700
C1334       C  0.73189841  0.37233145  0.87395054     0.21900
C1335       C  0.74924877  0.37158089  0.85463249    -0.20000
C1336       C  0.76650131  0.37174002  0.87455947    -0.10900
C1337       C  0.71366005  0.37208235  0.85261714    -0.15000
C1338       C  0.69880766  0.36197074  0.86489801    -0.28900
C1339       C  0.78488087  0.37380591  0.93561402    -0.03200
C1340       C  0.79999557  0.36315648  0.92529505    -0.39700
H1341       H  0.74914703  0.37602502  0.96383615     0.13100
H1342       H  0.71887148  0.37514547  0.92908677     0.12700
H1343       H  0.74943555  0.37064061  0.82415257     0.12100
H1344       H  0.77970143  0.37118239  0.85889335     0.12400
H1345       H  0.71238858  0.38048231  0.82713458     0.15100
H1346       H  0.70071433  0.35301955  0.88952925     0.13900
H1347       H  0.78588602  0.38337101  0.95978590     0.11600
H1348       H  0.79851043  0.35303180  0.90212079     0.13600
C1349       C  0.86371169  0.51908029  0.01510644     0.19700
C1350       C  0.84830157  0.50900312  0.99965486    -0.18400
C1351       C  0.85071277  0.49029358  0.98640251    -0.10700
C1352       C  0.86871010  0.48131985  0.98805746     0.21900
C1353       C  0.88426318  0.49165751  0.00208609    -0.20000
C1354       C  0.88182024  0.51030210  0.01563785    -0.10900
C1355       C  0.87173305  0.46119221  0.97588793    -0.15000
C1356       C  0.85810419  0.44794495  0.97887495    -0.28900
C1357       C  0.86058240  0.53897103  0.02875120    -0.03200
C1358       C  0.87157773  0.54740692  0.05517553    -0.39700
H1359       H  0.83429670  0.51557871  0.99814564     0.13100
H1360       H  0.83851454  0.48299235  0.97460531     0.12700
H1361       H  0.89831652  0.48516794  0.00313389     0.12100
H1362       H  0.89419694  0.51784942  0.02593964     0.12400
H1363       H  0.88601812  0.45679376  0.96763625     0.15100
H1364       H  0.84420064  0.45192637  0.98986732     0.13900
H1365       H  0.84858174  0.54683270  0.01696420     0.11600
H1366       H  0.88305305  0.53945791  0.06853568     0.13600
C1367       C  0.02086269  0.38416413  0.42696284     0.19700
C1368       C  0.01250534  0.38000291  0.46174464    -0.18400
C1369       C  0.99285366  0.38200937  0.46694146    -0.10700
C1370       C  0.98098056  0.38791571  0.43703604     0.21900
C1371       C  0.98938858  0.39218229  0.40228576    -0.20000
C1372       C  0.00907413  0.39027794  0.39717234    -0.10900
C1373       C  0.95985111  0.38950421  0.44040921    -0.15000
C1374       C  0.94974604  0.38155663  0.46828902    -0.28900
C1375       C  0.04180464  0.38154775  0.42283387    -0.03200
C1376       C  0.05232859  0.39081789  0.39729875    -0.39700
H1377       H  0.02126524  0.37532261  0.48518509     0.13100
H1378       H  0.98722456  0.37901860  0.49452206     0.12700
H1379       H  0.98063753  0.39670580  0.37871680     0.12100
H1380       H  0.01487149  0.39319499  0.36965000     0.12400
H1381       H  0.95218852  0.39647674  0.41760743     0.15100
H1382       H  0.95685050  0.37374624  0.49057006     0.13900
H1383       H  0.04897954  0.37235909  0.44302932     0.11600
H1384       H  0.04565154  0.40096861  0.37837483     0.13600
C1385       C  0.86212685  0.37243902  0.75304627     0.19700
C1386       C  0.86119963  0.35668168  0.72853500    -0.18400
C1387       C  0.85902339  0.35923521  0.68971973    -0.10700
C1388       C  0.85750641  0.37766514  0.67452044     0.21900
C1389       C  0.85747519  0.39341759  0.69916105    -0.20000
C1390       C  0.85987710  0.39087064  0.73805213    -0.10900
C1391       C  0.85660518  0.38065189  0.63304825    -0.15000
C1392       C  0.86696853  0.36963759  0.60958346    -0.28900
C1393       C  0.86469914  0.36906192  0.79410981    -0.03200
C1394       C  0.87297417  0.38170508  0.81766515    -0.39700
H1395       H  0.86246933  0.34233597  0.73940365     0.13100
H1396       H  0.85852383  0.34674632  0.67159482     0.12700
H1397       H  0.85606720  0.40773213  0.68820711     0.12100
H1398       H  0.85977483  0.40332733  0.75625917     0.12400
H1399       H  0.84885381  0.39289792  0.62209862     0.15100
H1400       H  0.87617603  0.35865807  0.62139166     0.13900
H1401       H  0.85989529  0.35551666  0.80514176     0.11600
H1402       H  0.87850612  0.39496319  0.80674762     0.13600
C1403       C  0.88061570  0.38437178  0.25311768     0.19700
C1404       C  0.86896082  0.39614106  0.23083966    -0.18400
C1405       C  0.86771970  0.39318356  0.19180197    -0.10700
C1406       C  0.87835387  0.37849946  0.17432963     0.21900
C1407       C  0.89043375  0.36714835  0.19655071    -0.20000
C1408       C  0.89150823  0.36996292  0.23550266    -0.10900
C1409       C  0.87815704  0.37519243  0.13292634    -0.15000
C1410       C  0.86354579  0.37999540  0.11004433    -0.28900
C1411       C  0.88112265  0.38725119  0.29462689    -0.03200
C1412       C  0.88292813  0.37247411  0.31824841    -0.39700
H1413       H  0.86061279  0.40747017  0.24374415     0.13100
H1414       H  0.85873678  0.40262920  0.17542406     0.12700
H1415       H  0.89903749  0.35598687  0.18371629     0.12100
H1416       H  0.90106277  0.36099116  0.25170631     0.12400
H1417       H  0.89058141  0.36811919  0.12089170     0.15100
H1418       H  0.85065711  0.38634780  0.12156756     0.13900
H1419       H  0.87834300  0.40144123  0.30596929     0.11600
H1420       H  0.88379968  0.35805887  0.30690190     0.13600
C1421       C  0.73620662  0.37661146  0.37195779     0.19700
C1422       C  0.75332499  0.37938274  0.35261404    -0.18400
C1423       C  0.77069736  0.37994633  0.37225143    -0.10700
C1424       C  0.77121425  0.37824283  0.41180059     0.21900
C1425       C  0.75401392  0.37620824  0.43123438    -0.20000
C1426       C  0.73670681  0.37517401  0.41153052    -0.10900
C1427       C  0.78952918  0.37889480  0.43314799    -0.15000
C1428       C  0.80524199  0.37004818  0.42007590    -0.28900
C1429       C  0.71780814  0.37600333  0.35095263    -0.03200
C1430       C  0.70410673  0.36366317  0.36039032    -0.39700
H1431       H  0.75327139  0.38084978  0.32224803     0.13100
H1432       H  0.78370318  0.38201674  0.35655624     0.12700
H1433       H  0.75400548  0.37512428  0.46166971     0.12100
H1434       H  0.72365607  0.37357633  0.42732401     0.12400
H1435       H  0.78989963  0.38609651  0.46037011     0.15100
H1436       H  0.80422574  0.36180216  0.39406493     0.13900
H1437       H  0.71543667  0.38598337  0.32812719     0.11600
H1438       H  0.70715094  0.35323708  0.38215086     0.13600
C1439       C  0.86530012  0.51465018  0.55293558     0.19700
C1440       C  0.88131784  0.50476201  0.53921727    -0.18400
C1441       C  0.87964239  0.48620971  0.52476517    -0.10700
C1442       C  0.86188163  0.47701605  0.52424903     0.21900
C1443       C  0.84598888  0.48666270  0.53925977    -0.20000
C1444       C  0.84761065  0.50533826  0.55317988    -0.10900
C1445       C  0.85977620  0.45698493  0.51068527    -0.15000
C1446       C  0.87119506  0.44890848  0.48446976    -0.28900
C1447       C  0.86748982  0.53463280  0.56665902    -0.03200
C1448       C  0.85387014  0.54797181  0.56148655    -0.39700
H1449       H  0.89514273  0.51152291  0.53920545     0.13100
H1450       H  0.89236106  0.47898973  0.51480813     0.12700
H1451       H  0.83224241  0.47975726  0.54001022     0.12100
H1452       H  0.83508155  0.51236529  0.56455055     0.12400
H1453       H  0.84849921  0.44857521  0.52303745     0.15100
H1454       H  0.88192144  0.45741120  0.47063877     0.13900
H1455       H  0.88124021  0.53887673  0.57800258     0.11600
H1456       H  0.84074643  0.54411939  0.54709284     0.13600
C1457       C  0.11662124  0.27851668  0.90745492     0.19700
C1458       C  0.10393761  0.26640811  0.92590640    -0.18400
C1459       C  0.10622460  0.24656796  0.92364114    -0.10700
C1460       C  0.12147719  0.23841884  0.90321366     0.21900
C1461       C  0.13415706  0.25052114  0.88487729    -0.20000
C1462       C  0.13192267  0.27031829  0.88725762    -0.10900
C1463       C  0.12439904  0.21742504  0.89994198    -0.15000
C1464       C  0.11889335  0.20531057  0.92684431    -0.28900
C1465       C  0.11390222  0.29957837  0.91048501    -0.03200
C1466       C  0.12030316  0.31156842  0.88407486    -0.39700
H1467       H  0.09207066  0.27231562  0.94172152     0.13100
H1468       H  0.09584533  0.23770356  0.93735599     0.12700
H1469       H  0.14605289  0.24463114  0.86912094     0.12100
H1470       H  0.14244368  0.27909183  0.87377531     0.12400
H1471       H  0.13191676  0.21188661  0.87540342     0.15100
H1472       H  0.11231239  0.21085225  0.95236856     0.13900
H1473       H  0.10628180  0.30529959  0.93473589     0.11600
H1474       H  0.12705881  0.30586720  0.85888591     0.13600
C1475       C  0.12469713  0.23645372  0.40489509     0.19700
C1476       C  0.12854170  0.24747804  0.37304089    -0.18400
C1477       C  0.12605622  0.26730094  0.37385714    -0.10700
C1478       C  0.11997404  0.27672631  0.40699170     0.21900
C1479       C  0.11596118  0.26568627  0.43878343    -0.20000
C1480       C  0.11839368  0.24581999  0.43792618    -0.10900
C1481       C  0.11762454  0.29792092  0.40935739    -0.15000
C1482       C  0.12677952  0.30993358  0.38633528    -0.28900
C1483       C  0.12791159  0.21539419  0.40266243    -0.03200
C1484       C  0.11963553  0.20283553  0.42586374    -0.39700
H1485       H  0.13334410  0.24068819  0.34718074     0.13100
H1486       H  0.12870940  0.27505671  0.34824995     0.12700
H1487       H  0.11124147  0.27250322  0.46466990     0.12100
H1488       H  0.11570464  0.23800019  0.46344654     0.12400
H1489       H  0.10877894  0.30381950  0.43173594     0.15100
H1490       H  0.13645424  0.30427306  0.36520059     0.13900
H1491       H  0.13703690  0.20999255  0.38023728     0.11600
H1492       H  0.10981884  0.20783367  0.44738086     0.13600
C1493       C  0.12415042  0.13437515  0.71200715     0.19700
C1494       C  0.14029165  0.13986757  0.69170918    -0.18400
C1495       C  0.14016212  0.13968181  0.65235191    -0.10700
C1496       C  0.12374379  0.13412593  0.63238647     0.21900
C1497       C  0.10747424  0.12892659  0.65267099    -0.20000
C1498       C  0.10767587  0.12891626  0.69213000    -0.10900
C1499       C  0.12287444  0.13436008  0.59057784    -0.15000
C1500       C  0.13831908  0.13207600  0.56855825    -0.28900
C1501       C  0.12479660  0.13564368  0.75373628    -0.03200
C1502       C  0.11423941  0.12489893  0.77690668    -0.39700
H1503       H  0.15306141  0.14440893  0.70640460     0.13100
H1504       H  0.15276588  0.14437933  0.63778592     0.12700
H1505       H  0.09456193  0.12486496  0.63791902     0.12100
H1506       H  0.09481387  0.12512953  0.70689840     0.12400
H1507       H  0.10889509  0.13567934  0.57748449     0.15100
H1508       H  0.15220652  0.12935379  0.58107440     0.13900
H1509       H  0.13518509  0.14534808  0.76593924     0.11600
H1510       H  0.10475260  0.11412178  0.76552074     0.13600
C1511       C  0.13270378  0.13550205  0.13193389     0.19700
C1512       C  0.11669823  0.13235459  0.15458018    -0.18400
C1513       C  0.11835327  0.13197693  0.19380091    -0.10700
C1514       C  0.13607111  0.13499201  0.21131694     0.21900
C1515       C  0.15205565  0.13849309  0.18881469    -0.20000
C1516       C  0.15046015  0.13858520  0.14943133    -0.10900
C1517       C  0.13793982  0.13555389  0.25297512    -0.15000
C1518       C  0.12758658  0.12438056  0.27562395    -0.28900
C1519       C  0.12992963  0.13634142  0.09045253    -0.03200
C1520       C  0.14372623  0.13297032  0.06487176    -0.39700
H1521       H  0.10281592  0.13021284  0.14185469     0.13100
H1522       H  0.10564972  0.12981527  0.21039452     0.12700
H1523       H  0.16579516  0.14113883  0.20176034     0.12100
H1524       H  0.16300896  0.14156544  0.13295297     0.12400
H1525       H  0.14853442  0.14499804  0.26525051     0.15100
H1526       H  0.11813997  0.11376794  0.26346158     0.13900
H1527       H  0.11548543  0.13901421  0.08052713     0.11600
H1528       H  0.15802500  0.12908678  0.07386111     0.13600
C1529       C  0.38501062  0.27258233  0.79985431     0.19700
C1530       C  0.39996274  0.26243617  0.78255996    -0.18400
C1531       C  0.40045278  0.24249543  0.78287345    -0.10700
C1532       C  0.38598616  0.23216025  0.80044181     0.21900
C1533       C  0.37076352  0.24232288  0.81718813    -0.20000
C1534       C  0.37030562  0.26227194  0.81695520    -0.10900
C1535       C  0.38702428  0.21090399  0.79944590    -0.15000
C1536       C  0.37660781  0.19964182  0.82179184    -0.28900
C1537       C  0.38492171  0.29378957  0.79796131    -0.03200
C1538       C  0.37471174  0.30520976  0.82112553    -0.39700
H1539       H  0.41136389  0.26997794  0.76877170     0.13100
H1540       H  0.41222308  0.23511047  0.76934115     0.12700
H1541       H  0.35887477  0.23507371  0.82973616     0.12100
H1542       H  0.35812881  0.26944367  0.82932610     0.12400
H1543       H  0.39693541  0.20427330  0.77975704     0.15100
H1544       H  0.36700602  0.20582560  0.84245015     0.13900
H1545       H  0.39408299  0.30028274  0.77713146     0.11600
H1546       H  0.36619415  0.29918326  0.84342491     0.13600
C1547       C  0.22953251  0.12472456  0.86162858     0.19700
C1548       C  0.24566531  0.11957968  0.88270802    -0.18400
C1549       C  0.26371806  0.11944556  0.86634986    -0.10700
C1550       C  0.26609037  0.12426516  0.82824512     0.21900
C1551       C  0.24990871  0.12872844  0.80659137    -0.20000
C1552       C  0.23177217  0.12913864  0.82318531    -0.10900
C1553       C  0.28546837  0.12460370  0.81138057    -0.15000
C1554       C  0.30014359  0.13167589  0.83134703    -0.28900
C1555       C  0.21060535  0.12445961  0.88038759    -0.03200
C1556       C  0.19593982  0.13575994  0.87015607    -0.39700
H1557       H  0.24431762  0.11580302  0.91211394     0.13100
H1558       H  0.27585597  0.11538559  0.88352544     0.12700
H1559       H  0.25134708  0.13221143  0.77705980     0.12100
H1560       H  0.21954889  0.13257523  0.80575694     0.12400
H1561       H  0.28762662  0.11914588  0.78296515     0.15100
H1562       H  0.29725541  0.13814166  0.85871614     0.13900
H1563       H  0.20891083  0.11502412  0.90425644     0.11600
H1564       H  0.19775839  0.14590712  0.84753560     0.13600
C1565       C  0.38259679  0.27068268  0.30726901     0.19700
C1566       C  0.39732603  0.25898883  0.29329697    -0.18400
C1567       C  0.39705043  0.23923652  0.29862366    -0.10700
C1568       C  0.38184971  0.23067433  0.31775692     0.21900
C1569       C  0.36714925  0.24234338  0.33180395    -0.20000
C1570       C  0.36737476  0.26207207  0.32634388    -0.10900
C1571       C  0.38087744  0.20972011  0.32378743    -0.15000
C1572       C  0.38913908  0.19690997  0.30048303    -0.28900
C1573       C  0.38357000  0.29167729  0.30115267    -0.03200
C1574       C  0.37403048  0.30447961  0.32250415    -0.39700
H1575       H  0.40922937  0.26518986  0.27858618     0.13100
H1576       H  0.40892564  0.23081247  0.28823069     0.12700
H1577       H  0.35525373  0.23612488  0.34652174     0.12100
H1578       H  0.35540417  0.27036857  0.33661794     0.12400
H1579       H  0.37216148  0.20467156  0.34682877     0.15100
H1580       H  0.39685020  0.20172224  0.27594534     0.13900
H1581       H  0.39310620  0.29678453  0.27948340     0.11600
H1582       H  0.36524293  0.29971441  0.34557302     0.13600
C1583       C  0.37509815  0.12491477  0.59988834     0.19700
C1584       C  0.37479669  0.10880472  0.57617947    -0.18400
C1585       C  0.37829461  0.11049212  0.53752058    -0.10700
C1586       C  0.38194225  0.12844710  0.52172315     0.21900
C1587       C  0.38200669  0.14456769  0.54541331    -0.20000
C1588       C  0.37872542  0.14285085  0.58406948    -0.10900
C1589       C  0.38398363  0.13115026  0.48041406    -0.15000
C1590       C  0.38994889  0.11737499  0.45643809    -0.28900
C1591       C  0.37111578  0.12274514  0.64076185    -0.03200
C1592       C  0.37926575  0.13397571  0.66701952    -0.39700
H1593       H  0.37182849  0.09486896  0.58761825     0.13100
H1594       H  0.37749240  0.09781892  0.52002195     0.12700
H1595       H  0.38441708  0.15859794  0.53387939     0.12100
H1596       H  0.37853014  0.15565792  0.60129732     0.12400
H1597       H  0.38006184  0.14503887  0.46928201     0.15100
H1598       H  0.39478347  0.10371257  0.46716603     0.13900
H1599       H  0.36225921  0.11096405  0.64958077     0.11600
H1600       H  0.38949942  0.14462567  0.65849636     0.13600
C1601       C  0.38001787  0.11031708  0.02266215     0.19700
C1602       C  0.37048360  0.09818528  0.04736284    -0.18400
C1603       C  0.37071597  0.10183201  0.08627849    -0.10700
C1604       C  0.38081224  0.11751461  0.10102702     0.21900
C1605       C  0.39106038  0.12904257  0.07634376    -0.20000
C1606       C  0.39057610  0.12558697  0.03757635    -0.10900
C1607       C  0.38189191  0.12178069  0.14200168    -0.15000
C1608       C  0.36823517  0.11721791  0.16680747    -0.28900
C1609       C  0.37850101  0.10739197  0.98131913    -0.03200
C1610       C  0.37563769  0.12237676  0.95864080    -0.39700
H1611       H  0.36247856  0.08619126  0.03645875     0.13100
H1612       H  0.36322659  0.09224840  0.10467567     0.12700
H1613       H  0.39927049  0.14094319  0.08706278     0.12100
H1614       H  0.39847126  0.13487412  0.01919647     0.12400
H1615       H  0.39441734  0.12934703  0.15198555     0.15100
H1616       H  0.35524248  0.11039660  0.15719437     0.13900
H1617       H  0.37872277  0.09299590  0.96978230     0.11600
H1618       H  0.37384412  0.13647847  0.97115767     0.13600
C1619       C  0.23893949  0.13190418  0.39076012     0.19700
C1620       C  0.25520841  0.13222600  0.41385059    -0.18400
C1621       C  0.27344803  0.13151452  0.39796747    -0.10700
C1622       C  0.27572252  0.13008213  0.35860755     0.21900
C1623       C  0.25943426  0.12935253  0.33564772    -0.20000
C1624       C  0.24123889  0.13041164  0.35145634    -0.10900
C1625       C  0.29480559  0.12808748  0.34090619    -0.15000
C1626       C  0.31052475  0.13621850  0.35542571    -0.28900
C1627       C  0.21969392  0.13187253  0.40806039    -0.03200
C1628       C  0.20463469  0.14032929  0.39140981    -0.39700
H1629       H  0.25378901  0.13300843  0.44421355     0.13100
H1630       H  0.28570139  0.13149521  0.41659267     0.12700
H1631       H  0.26080036  0.12790782  0.30535138     0.12100
H1632       H  0.22897950  0.12948343  0.33292856     0.12400
H1633       H  0.29585780  0.11988865  0.31485466     0.15100
H1634       H  0.30936947  0.14531870  0.38024984     0.13900
H1635       H  0.21788455  0.12459681  0.43470824     0.11600
H1636       H  0.20676476  0.14852384  0.36594266     0.13600
C1637       C  0.36669527  0.72961617  0.67138093     0.19700
C1638       C  0.35328874  0.74267215  0.65695637    -0.18400
C1639       C  0.35581736  0.76239091  0.66144625    -0.10700
C1640       C  0.37200978  0.76956160  0.68027593     0.21900
C1641       C  0.38551629  0.75651911  0.69420149    -0.20000
C1642       C  0.38303674  0.73685472  0.68959343    -0.10900
C1643       C  0.37517047  0.79035520  0.68714762    -0.15000
C1644       C  0.36658470  0.80436833  0.66746107    -0.28900
C1645       C  0.36322448  0.70868996  0.66661647    -0.03200
C1646       C  0.37205145  0.69524867  0.68747986    -0.39700
H1647       H  0.34061053  0.73758559  0.64266593     0.13100
H1648       H  0.34482724  0.77183553  0.65087582     0.12700
H1649       H  0.39817263  0.76158070  0.70862013     0.12100
H1650       H  0.39413121  0.72752055  0.70005700     0.12400
H1651       H  0.38548809  0.79426577  0.70875318     0.15100
H1652       H  0.35693055  0.80086678  0.64451769     0.13900
H1653       H  0.35261000  0.70424982  0.64601531     0.11600
H1654       H  0.38208548  0.69940777  0.70928427     0.13600
C1655       C  0.37497666  0.01943791  0.77459940     0.19700
C1656       C  0.39150571  0.00912751  0.76500079    -0.18400
C1657       C  0.39036755  0.99021860  0.75225592    -0.10700
C1658       C  0.37260106  0.98115264  0.74926044     0.21900
C1659       C  0.35611032  0.99137848  0.75952625    -0.20000
C1660       C  0.35723352  0.01033652  0.77185532    -0.10900
C1661       C  0.37073623  0.96079978  0.73780220    -0.15000
C1662       C  0.38363326  0.95118189  0.71675511    -0.28900
C1663       C  0.37674907  0.03944986  0.78829128    -0.03200
C1664       C  0.36323918  0.05279295  0.78211765    -0.39700
H1665       H  0.40535668  0.01575480  0.76728924     0.13100
H1666       H  0.40345572  0.98266182  0.74576828     0.12700
H1667       H  0.34228333  0.98464499  0.75809416     0.12100
H1668       H  0.34424578  0.01766995  0.78001973     0.12400
H1669       H  0.35792974  0.95350846  0.74670775     0.15100
H1670       H  0.39607640  0.95836965  0.70595153     0.13900
H1671       H  0.39009795  0.04363455  0.80148988     0.11600
H1672       H  0.35058186  0.04915837  0.76596769     0.13600
C1673       C  0.36689331  0.73102484  0.18864508     0.19700
C1674       C  0.37385106  0.74247362  0.21819943    -0.18400
C1675       C  0.37320499  0.76235316  0.21592151    -0.10700
C1676       C  0.36573278  0.77131200  0.18366555     0.21900
C1677       C  0.35854900  0.75991844  0.15428335    -0.20000
C1678       C  0.35923166  0.74001143  0.15650724    -0.10900
C1679       C  0.36492806  0.79242080  0.17998199    -0.15000
C1680       C  0.37686609  0.80415474  0.19854507    -0.28900
C1681       C  0.36841327  0.70990844  0.19236380    -0.03200
C1682       C  0.35934375  0.69733487  0.16985164    -0.39700
H1683       H  0.37975438  0.73600188  0.24334274     0.13100
H1684       H  0.37832054  0.77057360  0.23976036     0.12700
H1685       H  0.35266612  0.76645151  0.12918714     0.12100
H1686       H  0.35404101  0.73190093  0.13263181     0.12400
H1687       H  0.35466069  0.79842715  0.16026917     0.15100
H1688       H  0.38790964  0.79833017  0.21668979     0.13900
H1689       H  0.37728768  0.70447143  0.21511345     0.11600
H1690       H  0.34991454  0.70220390  0.14761509     0.13600
C1691       C  0.38525661  0.86933289  0.89917660     0.19700
C1692       C  0.38811550  0.85456521  0.92501157    -0.18400
C1693       C  0.38798190  0.85841441  0.96381904    -0.10700
C1694       C  0.38534770  0.87720477  0.97733222     0.21900
C1695       C  0.38345477  0.89204644  0.95139613    -0.20000
C1696       C  0.38326891  0.88816592  0.91272797    -0.10900
C1697       C  0.38463818  0.88178165  0.01822458    -0.15000
C1698       C  0.37677984  0.86991705  0.04313537    -0.28900
C1699       C  0.38464662  0.86509391  0.85813930    -0.03200
C1700       C  0.37251786  0.87449688  0.83541148    -0.39700
H1701       H  0.39004997  0.84001880  0.91517463     0.13100
H1702       H  0.39009551  0.84672374  0.98315392     0.12700
H1703       H  0.38173164  0.90663992  0.96110370     0.12100
H1704       H  0.38170058  0.89994836  0.89340714     0.12400
H1705       H  0.38965004  0.89565242  0.02766127     0.15100
H1706       H  0.37069842  0.85656356  0.03330495     0.13900
H1707       H  0.39421413  0.85428792  0.84664981     0.11600
H1708       H  0.36242777  0.88457762  0.84772495     0.13600
C1709       C  0.36663077  0.88573938  0.40064547     0.19700
C1710       C  0.36864296  0.90186155  0.42398493    -0.18400
C1711       C  0.37042492  0.89984866  0.46310989    -0.10700
C1712       C  0.36978558  0.88165107  0.47942402     0.21900
C1713       C  0.36709169  0.86565275  0.45612225    -0.20000
C1714       C  0.36569849  0.86762332  0.41712237    -0.10900
C1715       C  0.37071396  0.87880659  0.52067654    -0.15000
C1716       C  0.38095294  0.88978056  0.54444845    -0.28900
C1717       C  0.36549664  0.88792304  0.35918169    -0.03200
C1718       C  0.37434828  0.87552677  0.33594666    -0.39700
H1719       H  0.36914502  0.91597720  0.41185656     0.13100
H1720       H  0.37190776  0.91249787  0.48052429     0.12700
H1721       H  0.36620775  0.85153506  0.46815388     0.12100
H1722       H  0.36364863  0.85498660  0.39988435     0.12400
H1723       H  0.36314677  0.86659900  0.53168735     0.15100
H1724       H  0.38948905  0.90137302  0.53372315     0.13900
H1725       H  0.35829028  0.90038387  0.34774669     0.11600
H1726       H  0.38298644  0.86409963  0.34776845     0.13600
C1727       C  0.38001912  0.01807068  0.27508094     0.19700
C1728       C  0.39269010  0.00917620  0.24982430    -0.18400
C1729       C  0.38914474  0.99074617  0.23604738    -0.10700
C1730       C  0.37289400  0.98075997  0.24767958     0.21900
C1731       C  0.36059381  0.98946170  0.27388028    -0.20000
C1732       C  0.36403672  0.00790962  0.28733775    -0.10900
C1733       C  0.36895236  0.96081257  0.23549634    -0.15000
C1734       C  0.37589235  0.95256720  0.20386701    -0.28900
C1735       C  0.38370927  0.03794536  0.28799674    -0.03200
C1736       C  0.36946731  0.05032997  0.29556939    -0.39700
H1737       H  0.40524548  0.01660717  0.24036401     0.13100
H1738       H  0.39935254  0.98428458  0.21699243     0.12700
H1739       H  0.34822372  0.98194253  0.28399202     0.12100
H1740       H  0.35429153  0.01407244  0.30771054     0.12400
H1741       H  0.36002726  0.95244223  0.25395418     0.15100
H1742       H  0.38437681  0.96074186  0.18437550     0.13900
H1743       H  0.39830506  0.04300419  0.28791183     0.11600
H1744       H  0.35478463  0.04586340  0.29207932     0.13600
C1745       C  0.13102067  0.77534346  0.52459893     0.19700
C1746       C  0.12101146  0.76361024  0.49933555    -0.18400
C1747       C  0.12042872  0.74389104  0.50450563    -0.10700
C1748       C  0.12962648  0.73541981  0.53561466     0.21900
C1749       C  0.13979247  0.74711847  0.56070966    -0.20000
C1750       C  0.14038779  0.76686403  0.55552553    -0.10900
C1751       C  0.12934696  0.71445890  0.54205001    -0.15000
C1752       C  0.11562728  0.70313492  0.52799431    -0.28900
C1753       C  0.13046202  0.79634316  0.51878798    -0.03200
C1754       C  0.14289847  0.80847049  0.53482387    -0.39700
H1755       H  0.11366840  0.76972345  0.47532151     0.13100
H1756       H  0.11299842  0.73540009  0.48364977     0.12700
H1757       H  0.14705072  0.74098824  0.58480142     0.12100
H1758       H  0.14781011  0.77534616  0.57638799     0.12400
H1759       H  0.14069031  0.70821256  0.55899063     0.15100
H1760       H  0.10382036  0.70927808  0.51230299     0.13900
H1761       H  0.11911985  0.80205237  0.50111131     0.11600
H1762       H  0.15463986  0.80311565  0.55175315     0.13600
C1763       C  0.13883382  0.98594810  0.48336951     0.19700
C1764       C  0.15475957  0.99582800  0.47016790    -0.18400
C1765       C  0.15293127  0.01442757  0.45664691    -0.10700
C1766       C  0.13501316  0.02355244  0.45572330     0.21900
C1767       C  0.11900291  0.01354218  0.46820273    -0.20000
C1768       C  0.12086713  0.99497248  0.48212179    -0.10900
C1769       C  0.13253308  0.04335851  0.44160147    -0.15000
C1770       C  0.14626915  0.05659076  0.44450196    -0.28900
C1771       C  0.14138912  0.96579582  0.49521171    -0.03200
C1772       C  0.12959398  0.95651509  0.51860887    -0.39700
H1773       H  0.16869847  0.98907292  0.47012453     0.13100
H1774       H  0.16550683  0.02143156  0.44622976     0.12700
H1775       H  0.10500732  0.02015785  0.46735711     0.12100
H1776       H  0.10818032  0.98759792  0.49088015     0.12400
H1777       H  0.11851833  0.04759583  0.43133741     0.15100
H1778       H  0.15977894  0.05297783  0.45777316     0.13900
H1779       H  0.15373970  0.95825522  0.48399972     0.11600
H1780       H  0.11771869  0.96396013  0.53175741     0.13600
C1781       C  0.27532293  0.88365590  0.62527513     0.19700
C1782       C  0.27009624  0.88475141  0.58712889    -0.18400
C1783       C  0.25092668  0.88513296  0.57643600    -0.10700
C1784       C  0.23655697  0.88429041  0.60383447     0.21900
C1785       C  0.24177086  0.88322845  0.64199513    -0.20000
C1786       C  0.26095592  0.88299631  0.65271789    -0.10900
C1787       C  0.21611650  0.88302774  0.59356412    -0.15000
C1788       C  0.20871994  0.88981651  0.56124828    -0.28900
C1789       C  0.29581956  0.88182459  0.63490694    -0.03200
C1790       C  0.30331062  0.88632767  0.66878853    -0.39700
H1791       H  0.28091014  0.88501757  0.56543984     0.13100
H1792       H  0.24748550  0.88537428  0.54669746     0.12700
H1793       H  0.23094633  0.88229701  0.66356823     0.12100
H1794       H  0.26441526  0.88160468  0.68230711     0.12400
H1795       H  0.20670423  0.87645848  0.61387011     0.15100
H1796       H  0.21753877  0.89760851  0.54170586     0.13900
H1797       H  0.30527163  0.87691706  0.61258389     0.11600
H1798       H  0.29449364  0.89252743  0.69082160     0.13600
C1799       C  0.13259747  0.77536327  0.03154540     0.19700
C1800       C  0.13196246  0.76302543  0.00024365    -0.18400
C1801       C  0.13279494  0.74324187  0.00484021    -0.10700
C1802       C  0.13393848  0.73524508  0.04108231     0.21900
C1803       C  0.13502519  0.74756490  0.07238762    -0.20000
C1804       C  0.13422329  0.76739607  0.06778515    -0.10900
C1805       C  0.13380362  0.71419493  0.04699032    -0.15000
C1806       C  0.12487586  0.70224395  0.02298927    -0.28900
C1807       C  0.13078084  0.79631614  0.02525751    -0.03200
C1808       C  0.13722467  0.80954037  0.04978589    -0.39700
H1809       H  0.13084353  0.76872700  0.97203325     0.13100
H1810       H  0.13262021  0.73429071  0.97985729     0.12700
H1811       H  0.13596813  0.74181862  0.10057860     0.12100
H1812       H  0.13433319  0.77633816  0.09276681     0.12400
H1813       H  0.14024938  0.70856155  0.07251241     0.15100
H1814       H  0.11738594  0.70800879  0.99875527     0.13900
H1815       H  0.12436309  0.80099588  0.99894580     0.11600
H1816       H  0.14462423  0.80512293  0.07520368     0.13600
C1817       C  0.12294293  0.88773952  0.74631494     0.19700
C1818       C  0.13070458  0.90079555  0.77211046    -0.18400
C1819       C  0.13131288  0.89660053  0.81057621    -0.10700
C1820       C  0.12383455  0.87936783  0.82399648     0.21900
C1821       C  0.11520345  0.86676494  0.79836463    -0.20000
C1822       C  0.11495509  0.87078218  0.75979964    -0.10900
C1823       C  0.12416180  0.87472293  0.86475575    -0.15000
C1824       C  0.13859125  0.88003586  0.88747755    -0.28900
C1825       C  0.12367436  0.89177872  0.70538639    -0.03200
C1826       C  0.12882229  0.87812005  0.68067323    -0.39700
H1827       H  0.13672389  0.91404281  0.76236288     0.13100
H1828       H  0.13742512  0.90696136  0.82980762     0.12700
H1829       H  0.10897550  0.85362128  0.80813160     0.12100
H1830       H  0.10848122  0.86066989  0.74050124     0.12400
H1831       H  0.11217479  0.86702465  0.87628608     0.15100
H1832       H  0.15086541  0.88709190  0.87553825     0.13900
H1833       H  0.12154040  0.90633264  0.69588177     0.11600
H1834       H  0.13265903  0.86405899  0.69108313     0.13600
C1835       C  0.13017251  0.87846000  0.32262819     0.19700
C1836       C  0.11377035  0.88198455  0.30086134    -0.18400
C1837       C  0.11500300  0.88380514  0.26164694    -0.10700
C1838       C  0.13269323  0.88183693  0.24350235     0.21900
C1839       C  0.14898840  0.87791650  0.26520964    -0.20000
C1840       C  0.14779858  0.87631692  0.30431339    -0.10900
C1841       C  0.13461157  0.88221061  0.20191755    -0.15000
C1842       C  0.12297294  0.89196893  0.17854716    -0.28900
C1843       C  0.12848349  0.87673275  0.36419883    -0.03200
C1844       C  0.14269025  0.88159647  0.38790153    -0.39700
H1845       H  0.09999048  0.88342250  0.31426866     0.13100
H1846       H  0.10207383  0.88623157  0.24559842     0.12700
H1847       H  0.16271631  0.87597954  0.25179832     0.12100
H1848       H  0.16064676  0.87297010  0.31996150     0.12400
H1849       H  0.14657307  0.87428824  0.19007068     0.15100
H1850       H  0.11165332  0.90097464  0.18972607     0.13900
H1851       H  0.11483620  0.87248678  0.37566456     0.11600
H1852       H  0.15580983  0.88738276  0.37683109     0.13600
C1853       C  0.11832316  0.02561669  0.95910873     0.19700
C1854       C  0.11618368  0.00905905  0.93706883    -0.18400
C1855       C  0.11670097  0.99100665  0.95379246    -0.10700
C1856       C  0.11878356  0.98919254  0.99308960     0.21900
C1857       C  0.12017404  0.00577081  0.01528742    -0.20000
C1858       C  0.12022984  0.02379660  0.99845687    -0.10900
C1859       C  0.11939490  0.97009328  0.01114090    -0.15000
C1860       C  0.13045074  0.95599172  0.99718029    -0.28900
C1861       C  0.11798355  0.04470987  0.94094907    -0.03200
C1862       C  0.13009902  0.05852928  0.95163284    -0.39700
H1863       H  0.11444822  0.01009003  0.90680234     0.13100
H1864       H  0.11524183  0.97844593  0.93607715     0.12700
H1865       H  0.12159486  0.00474455  0.04561462     0.12100
H1866       H  0.12146196  0.03634502  0.01627125     0.12400
H1867       H  0.11137941  0.96789409  0.03683899     0.15100
H1868       H  0.13941779  0.95899991  0.97307048     0.13900
H1869       H  0.10797678  0.04724931  0.91805631     0.11600
H1870       H  0.14087349  0.05528381  0.97278342     0.13600
C1871       C  0.27230882  0.87581754  0.12835283     0.19700
C1872       C  0.26732495  0.87657136  0.09000092    -0.18400
C1873       C  0.24821241  0.87791204  0.07875267    -0.10700
C1874       C  0.23359082  0.87827576  0.10575426     0.21900
C1875       C  0.23857907  0.87720304  0.14410129    -0.20000
C1876       C  0.25771164  0.87610837  0.15536153    -0.10900
C1877       C  0.21302731  0.87858124  0.09509250    -0.15000
C1878       C  0.20615392  0.88541117  0.06222129    -0.28900
C1879       C  0.29277451  0.87385077  0.13889394    -0.03200
C1880       C  0.30026710  0.88032692  0.17162219    -0.39700
H1881       H  0.27829056  0.87609596  0.06860447     0.13100
H1882       H  0.24497735  0.87811589  0.04893103     0.12700
H1883       H  0.22760169  0.87713743  0.16546993     0.12100
H1884       H  0.26098213  0.87499931  0.18510104     0.12400
H1885       H  0.20303541  0.87330516  0.11579858     0.15100
H1886       H  0.21567294  0.89183366  0.04202293     0.13900
H1887       H  0.30226530  0.86773403  0.11780622     0.11600
H1888       H  0.29131932  0.88779712  0.19188898     0.13600
C1889       C  0.52047948  0.11795250  0.82207656     0.19700
C1890       C  0.50822220  0.11229113  0.85094601    -0.18400
C1891       C  0.48850399  0.11477656  0.84737568    -0.10700
C1892       C  0.48062662  0.12274593  0.81445996     0.21900
C1893       C  0.49288145  0.12837821  0.78558786    -0.20000
C1894       C  0.51257571  0.12586057  0.78911735    -0.10900
C1895       C  0.45979541  0.12575142  0.80956719    -0.15000
C1896       C  0.44669756  0.11488322  0.82645016    -0.28900
C1897       C  0.54134927  0.11509311  0.82687042    -0.03200
C1898       C  0.55424070  0.12597723  0.80944494    -0.39700
H1899       H  0.51394832  0.10617220  0.87658609     0.13100
H1900       H  0.47955551  0.11074851  0.87069108     0.12700
H1901       H  0.48716618  0.13450485  0.75993943     0.12100
H1902       H  0.52147511  0.12983957  0.76570203     0.12400
H1903       H  0.45512379  0.13677698  0.79017775     0.15100
H1904       H  0.45116191  0.10311083  0.84417136     0.13900
H1905       H  0.54620820  0.10411767  0.84619666     0.11600
H1906       H  0.54954760  0.13765405  0.79170505     0.13600
C1907       C  0.62446785  0.22571637  0.82504565     0.19700
C1908       C  0.60856244  0.23720857  0.81664139    -0.18400
C1909       C  0.60898252  0.25694636  0.82284707    -0.10700
C1910       C  0.62552838  0.26572884  0.83713652     0.21900
C1911       C  0.64142803  0.25421967  0.84548992    -0.20000
C1912       C  0.64099599  0.23448856  0.83933423    -0.10900
C1913       C  0.62683411  0.28671133  0.84388733    -0.15000
C1914       C  0.61546273  0.29962488  0.82689221    -0.28900
C1915       C  0.62333460  0.20476068  0.81808922    -0.03200
C1916       C  0.63434290  0.19186803  0.83608674    -0.39700
H1917       H  0.59563068  0.23084392  0.80566233     0.13100
H1918       H  0.59621498  0.26511845  0.81690943     0.12700
H1919       H  0.65438284  0.26056836  0.85638968     0.12100
H1920       H  0.65375330  0.22628456  0.84521747     0.12400
H1921       H  0.63831654  0.29177390  0.86193229     0.15100
H1922       H  0.60460395  0.29499572  0.80708555     0.13900
H1923       H  0.61232515  0.19971202  0.79889219     0.11600
H1924       H  0.64457154  0.19651341  0.85717731     0.13600
C1925       C  0.52806435  0.11496210  0.31703805     0.19700
C1926       C  0.51635119  0.12936818  0.30205191    -0.18400
C1927       C  0.49650289  0.12778189  0.30249739    -0.10700
C1928       C  0.48778070  0.11155140  0.31762502     0.21900
C1929       C  0.49943703  0.09716818  0.33284273    -0.20000
C1930       C  0.51933697  0.09872876  0.33232717    -0.10900
C1931       C  0.46664767  0.10957714  0.31929118    -0.15000
C1932       C  0.45470811  0.11866587  0.29551491    -0.28900
C1933       C  0.54916769  0.11747207  0.31537044    -0.03200
C1934       C  0.56194210  0.10666434  0.33419071    -0.39700
H1935       H  0.52258359  0.14205257  0.29022466     0.13100
H1936       H  0.48811023  0.13953057  0.29165766     0.12700
H1937       H  0.49312148  0.08457015  0.34484739     0.12100
H1938       H  0.52765482  0.08704689  0.34355346     0.12400
H1939       H  0.46077874  0.10032268  0.34065861     0.15100
H1940       H  0.46042041  0.12730400  0.27306842     0.13900
H1941       H  0.55442116  0.12897863  0.29801377     0.11600
H1942       H  0.55724547  0.09530476  0.35235211     0.13600
C1943       C  0.62875640  0.26228643  0.33855244     0.19700
C1944       C  0.64409141  0.25033393  0.34839355    -0.18400
C1945       C  0.64266221  0.23050911  0.34496615    -0.10700
C1946       C  0.62566630  0.22208003  0.33202952     0.21900
C1947       C  0.61033224  0.23401280  0.32211168    -0.20000
C1948       C  0.61175061  0.25386130  0.32558351    -0.10900
C1949       C  0.62366849  0.20103659  0.32726633    -0.15000
C1950       C  0.63444248  0.18831058  0.34616501    -0.28900
C1951       C  0.63111720  0.28333147  0.34265370    -0.03200
C1952       C  0.61995612  0.29628579  0.32523973    -0.39700
H1953       H  0.65737606  0.25637922  0.35832294     0.13100
H1954       H  0.65507124  0.22195356  0.35174729     0.12700
H1955       H  0.59710326  0.22793463  0.31196840     0.12100
H1956       H  0.59938037  0.26240309  0.31854775     0.12400
H1957       H  0.61284360  0.19587474  0.30778775     0.15100
H1958       H  0.64477523  0.19320020  0.36683895     0.13900
H1959       H  0.64303309  0.28834461  0.35961078     0.11600
H1960       H  0.60848578  0.29170022  0.30681623     0.13600
C1961       C  0.63857752  0.10542065  0.61184777     0.19700
C1962       C  0.65361528  0.09860838  0.58939297    -0.18400
C1963       C  0.65121031  0.09632092  0.55042413    -0.10700
C1964       C  0.63354256  0.10042998  0.53330279     0.21900
C1965       C  0.61830116  0.10650128  0.55592137    -0.20000
C1966       C  0.62079095  0.10910861  0.59475820    -0.10900
C1967       C  0.63077206  0.09889704  0.49188046    -0.15000
C1968       C  0.64417575  0.10481054  0.46791299    -0.28900
C1969       C  0.64149520  0.10758902  0.65319544    -0.03200
C1970       C  0.63181061  0.12046100  0.67416108    -0.39700
H1971       H  0.66732138  0.09528294  0.60197993     0.13100
H1972       H  0.66311231  0.09121339  0.53373633     0.12700
H1973       H  0.60452692  0.10957954  0.54338593     0.12100
H1974       H  0.60867110  0.11368786  0.61136942     0.12400
H1975       H  0.61682931  0.09494901  0.48103887     0.15100
H1976       H  0.65734454  0.11069018  0.47909382     0.13900
H1977       H  0.65182319  0.09822263  0.66670801     0.11600
H1978       H  0.62203888  0.13036175  0.66059951     0.13600
C1979       C  0.62886786  0.12110302  0.03227057     0.19700
C1980       C  0.62916616  0.13730415  0.05577616    -0.18400
C1981       C  0.63114523  0.13546792  0.09484834    -0.10700
C1982       C  0.63318886  0.11732935  0.11108191     0.21900
C1983       C  0.63317531  0.10116564  0.08751716    -0.20000
C1984       C  0.63089619  0.10298260  0.04854294    -0.10900
C1985       C  0.63622860  0.11480448  0.15217107    -0.15000
C1986       C  0.62876064  0.12664053  0.17832702    -0.28900
C1987       C  0.62804982  0.12358820  0.99079104    -0.03200
C1988       C  0.62063828  0.11053226  0.96693221    -0.39700
H1989       H  0.62799161  0.15143488  0.04381872     0.13100
H1990       H  0.63163563  0.14825593  0.11209257     0.12700
H1991       H  0.63499085  0.08706423  0.09932588     0.12100
H1992       H  0.63136916  0.09023674  0.03117126     0.12400
H1993       H  0.64402143  0.10218084  0.16123719     0.15100
H1994       H  0.61965655  0.13844369  0.16979798     0.13900
H1995       H  0.63380753  0.13670341  0.97953732     0.11600
H1996       H  0.61368265  0.09796838  0.97785219     0.13600
C1997       C  0.01851914  0.12404628  0.93404442     0.19700
C1998       C  0.00538244  0.11854638  0.90615846    -0.18400
C1999       C  0.98574768  0.12015568  0.91244606    -0.10700
C2000       C  0.97873657  0.12709549  0.94715963     0.21900
C2001       C  0.99184599  0.13275498  0.97492480    -0.20000
C2002       C  0.01147651  0.13109393  0.96869874    -0.10900
C2003       C  0.95793238  0.12874037  0.95517410    -0.15000
C2004       C  0.94492121  0.11758321  0.93814473    -0.28900
C2005       C  0.03934218  0.12188395  0.92628783    -0.03200
C2006       C  0.05273764  0.13168620  0.94533245    -0.39700
H2007       H  0.01033387  0.11312983  0.87920378     0.13100
H2008       H  0.97617092  0.11619756  0.88979832     0.12700
H2009       H  0.98687397  0.13814237  0.00189407     0.12100
H2010       H  0.02095638  0.13498242  0.99151399     0.12400
H2011       H  0.95331030  0.13883659  0.97676147     0.15100
H2012       H  0.94954790  0.10670663  0.91817037     0.13900
H2013       H  0.04371992  0.11235352  0.90354755     0.11600
H2014       H  0.04851504  0.14200312  0.96670735     0.13600
C2015       C  0.87609944  0.26747129  0.95113824     0.19700
C2016       C  0.86582519  0.25580908  0.92607223    -0.18400
C2017       C  0.86700962  0.23592199  0.92826498    -0.10700
C2018       C  0.87850258  0.22715008  0.95589954     0.21900
C2019       C  0.88910859  0.23879493  0.98040005    -0.20000
C2020       C  0.88797819  0.25867752  0.97813263    -0.10900
C2021       C  0.88020039  0.20603881  0.95977675    -0.15000
C2022       C  0.86771233  0.19360179  0.94477342    -0.28900
C2023       C  0.87422344  0.28859541  0.94746010    -0.03200
C2024       C  0.88059615  0.30123163  0.97328664    -0.39700
H2025       H  0.85680026  0.26211717  0.90460765     0.13100
H2026       H  0.85907935  0.22762876  0.90785454     0.12700
H2027       H  0.89830517  0.23247255  0.00156364     0.12100
H2028       H  0.89665608  0.26690234  0.99738115     0.12400
H2029       H  0.89194825  0.20054560  0.97665744     0.15100
H2030       H  0.85549487  0.19866425  0.92886215     0.13900
H2031       H  0.86686183  0.29396802  0.92266503     0.11600
H2032       H  0.88748401  0.29641354  0.99890097     0.13600
C2033       C  0.76770013  0.11796140  0.91325615     0.19700
C2034       C  0.76230429  0.11807401  0.87508192    -0.18400
C2035       C  0.74314696  0.11695782  0.86448142    -0.10700
C2036       C  0.72885504  0.11584686  0.89197291     0.21900
C2037       C  0.73422651  0.11570072  0.93019955    -0.20000
C2038       C  0.75345752  0.11663613  0.94082012    -0.10900
C2039       C  0.70825704  0.11640797  0.88192830    -0.15000
C2040       C  0.70117892  0.11079801  0.84822430    -0.28900
C2041       C  0.78819471  0.12038549  0.92267035    -0.03200
C2042       C  0.79659726  0.11523939  0.95539867    -0.39700
H2043       H  0.77297708  0.11928892  0.85327253     0.13100
H2044       H  0.73960345  0.11768474  0.83482953     0.12700
H2045       H  0.72346985  0.11511698  0.95195391     0.12100
H2046       H  0.75701396  0.11694219  0.97051136     0.12400
H2047       H  0.69847908  0.12159385  0.90344162     0.15100
H2048       H  0.71043653  0.10432043  0.82722483     0.13900
H2049       H  0.79706396  0.12601270  0.90037628     0.11600
H2050       H  0.78848395  0.10841330  0.97739048     0.13600
C2051       C  0.02594895  0.12050240  0.44661999     0.19700
C2052       C  0.01523860  0.12632554  0.47803895    -0.18400
C2053       C  0.99559096  0.12321968  0.47939320    -0.10700
C2054       C  0.98606692  0.11443776  0.44892355     0.21900
C2055       C  0.99679447  0.10838619  0.41767083    -0.20000
C2056       C  0.01647511  0.11149168  0.41631234    -0.10900
C2057       C  0.96504205  0.11146416  0.44875101    -0.15000
C2058       C  0.95293258  0.12261865  0.46856274    -0.28900
C2059       C  0.04678237  0.12451603  0.44637006    -0.03200
C2060       C  0.05938579  0.11517262  0.42429454    -0.39700
H2061       H  0.02213592  0.13321514  0.50183973     0.13100
H2062       H  0.98801605  0.12755664  0.50454616     0.12700
H2063       H  0.98985078  0.10158738  0.39383260     0.12100
H2064       H  0.02402705  0.10717532  0.39112719     0.12400
H2065       H  0.95929954  0.10055194  0.43007855     0.15100
H2066       H  0.95842005  0.13435252  0.48539436     0.13900
H2067       H  0.05202822  0.13519346  0.46615701     0.11600
H2068       H  0.05464483  0.10384774  0.40556438     0.13600
C2069       C  0.87946921  0.26798877  0.45458588     0.19700
C2070       C  0.87622419  0.25616153  0.42318573    -0.18400
C2071       C  0.87818231  0.23636878  0.42598374    -0.10700
C2072       C  0.88313342  0.22794713  0.46061296     0.21900
C2073       C  0.88650060  0.23979538  0.49193658    -0.20000
C2074       C  0.88456478  0.25957743  0.48912689    -0.10900
C2075       C  0.88504834  0.20697059  0.46524181    -0.15000
C2076       C  0.87649468  0.19424346  0.44235179    -0.28900
C2077       C  0.87691110  0.28892676  0.45054866    -0.03200
C2078       C  0.88566670  0.30165873  0.47308283    -0.39700
H2079       H  0.87233011  0.26227930  0.39626504     0.13100
H2080       H  0.87603293  0.22784165  0.40082689     0.12700
H2081       H  0.89031819  0.23369458  0.51891709     0.12100
H2082       H  0.88665847  0.26811477  0.51429631     0.12400
H2083       H  0.89312447  0.20184657  0.48938520     0.15100
H2084       H  0.86763469  0.19902390  0.41910820     0.13900
H2085       H  0.86799697  0.29401335  0.42754548     0.11600
H2086       H  0.89547863  0.29685145  0.49479409     0.13600
C2087       C  0.87241709  0.10800635  0.74740883     0.19700
C2088       C  0.88814167  0.11171099  0.72449889    -0.18400
C2089       C  0.88574414  0.11431045  0.68575534    -0.10700
C2090       C  0.86754476  0.11299069  0.66913693     0.21900
C2091       C  0.85194065  0.10847166  0.69185164    -0.10400
C2092       C  0.85429719  0.10616758  0.73070844    -0.10900
C2093       C  0.86468834  0.11516882  0.62795052    -0.15000
C2094       C  0.87571027  0.12646019  0.60685282    -0.28900
C2095       C  0.87520767  0.10641199  0.78868099    -0.03200
C2096       C  0.86249846  0.11382019  0.81295362    -0.39700
H2097       H  0.90225123  0.11294412  0.73672140     0.13100
H2098       H  0.89820955  0.11701867  0.66883786     0.12700
H2099       H  0.83787646  0.10694423  0.67956045     0.12100
H2100       H  0.84198396  0.10280981  0.74762087     0.12400
H2101       H  0.85333116  0.10705581  0.61464614     0.15100
H2102       H  0.88653376  0.13522651  0.62021007     0.13900
H2103       H  0.88865503  0.10074240  0.79920336     0.11600
H2104       H  0.84991542  0.12113617  0.80221470     0.13600
C2105       C  0.87431202  0.11750522  0.17102958     0.19700
C2106       C  0.87451680  0.10099387  0.19317477    -0.18400
C2107       C  0.87695371  0.10222392  0.23232080    -0.10700
C2108       C  0.87898974  0.12009344  0.25010994     0.21900
C2109       C  0.87860995  0.13659029  0.22798677    -0.20000
C2110       C  0.87638300  0.13534982  0.18889014    -0.10900
C2111       C  0.87977528  0.12232673  0.29171976    -0.15000
C2112       C  0.88590609  0.10875318  0.31569103    -0.28900
C2113       C  0.87114698  0.11571583  0.12968560    -0.03200
C2114       C  0.87791024  0.12832137  0.10473876    -0.39700
H2115       H  0.87270319  0.08710128  0.18014157     0.13100
H2116       H  0.87658844  0.08925127  0.24856918     0.12700
H2117       H  0.87980504  0.15054132  0.24108429     0.12100
H2118       H  0.87571873  0.14842271  0.17295512     0.12400
H2119       H  0.87504844  0.13599067  0.30312606     0.15100
H2120       H  0.89178726  0.09540398  0.30510669     0.13900
H2121       H  0.86383657  0.10309552  0.11932180     0.11600
H2122       H  0.88656284  0.14016881  0.11442113     0.13600
C2123       C  0.73931359  0.12491550  0.36555484     0.19700
C2124       C  0.74461115  0.12937298  0.40280637    -0.18400
C2125       C  0.76371471  0.12934359  0.41382182    -0.10700
C2126       C  0.77807637  0.12485107  0.38770686     0.21900
C2127       C  0.77287462  0.12062847  0.35027525    -0.20000
C2128       C  0.75367399  0.12055083  0.33924019    -0.10900
C2129       C  0.79857609  0.12525273  0.39824647    -0.15000
C2130       C  0.80501796  0.12222370  0.43356186    -0.28900
C2131       C  0.71867529  0.12543750  0.35600370    -0.03200
C2132       C  0.71059022  0.11807937  0.32454822    -0.39700
H2133       H  0.73388345  0.13297118  0.42361337     0.13100
H2134       H  0.76714890  0.13327616  0.44258706     0.12700
H2135       H  0.78371668  0.11734555  0.32951309     0.12100
H2136       H  0.75026753  0.11737497  0.31013491     0.12400
H2137       H  0.80878910  0.12739632  0.37576184     0.15100
H2138       H  0.79519378  0.11861245  0.45587675     0.13900
H2139       H  0.70940841  0.13155349  0.37748151     0.11600
H2140       H  0.71915601  0.11124283  0.30288062     0.13600
C2141       C  0.87673275  0.72826485  0.59564917     0.19700
C2142       C  0.88835271  0.73887970  0.57164448    -0.18400
C2143       C  0.88893142  0.75877907  0.57424209    -0.10700
C2144       C  0.87796814  0.76865982  0.60138416     0.21900
C2145       C  0.86643823  0.75804594  0.62556976    -0.20000
C2146       C  0.86585130  0.73812588  0.62295489    -0.10900
C2147       C  0.87750795  0.78990781  0.60462891    -0.15000
C2148       C  0.88993971  0.80150931  0.58752856    -0.28900
C2149       C  0.87659544  0.70707600  0.59100961    -0.03200
C2150       C  0.86427653  0.69534933  0.60814177    -0.39700
H2151       H  0.89689432  0.73174357  0.55032197     0.13100
H2152       H  0.89772052  0.76618510  0.55431569     0.12700
H2153       H  0.85780855  0.76521453  0.64670685     0.12100
H2154       H  0.85692248  0.73070356  0.64261363     0.12400
H2155       H  0.86628689  0.79628512  0.62169913     0.15100
H2156       H  0.90152695  0.79567994  0.57088854     0.13900
H2157       H  0.88701400  0.70084648  0.57185548     0.11600
H2158       H  0.85345786  0.70096995  0.62694548     0.13600
C2159       C  0.02903404  0.88382994  0.55274798     0.19700
C2160       C  0.01741771  0.89805737  0.56886302    -0.18400
C2161       C  0.99762383  0.89598272  0.56994196    -0.10700
C2162       C  0.98899526  0.87940438  0.55534157     0.21900
C2163       C  0.00059660  0.86524778  0.53899019    -0.20000
C2164       C  0.02038244  0.86730732  0.53794856    -0.10900
C2165       C  0.96802777  0.87641224  0.55620363    -0.15000
C2166       C  0.95639351  0.88532577  0.58082515    -0.28900
C2167       C  0.05005312  0.88651343  0.55295020    -0.03200
C2168       C  0.06198201  0.87695431  0.52983402    -0.39700
H2169       H  0.02367680  0.91092525  0.58042511     0.13100
H2170       H  0.98921886  0.90753114  0.58175337     0.12700
H2171       H  0.99434418  0.85235140  0.52753600     0.12100
H2172       H  0.02874536  0.85570655  0.52626013     0.12400
H2173       H  0.96206591  0.86597554  0.53672730     0.15100
H2174       H  0.96215492  0.89518230  0.60157743     0.13900
H2175       H  0.05587283  0.89700494  0.57248338     0.11600
H2176       H  0.05645811  0.86698919  0.50905159     0.13600
C2177       C  0.88074869  0.01433707  0.49619984     0.19700
C2178       C  0.89587652  0.00342650  0.51070920    -0.18400
C2179       C  0.89276093  0.98497933  0.52398771    -0.10700
C2180       C  0.87442571  0.97698337  0.52259920     0.21900
C2181       C  0.85945514  0.98760565  0.50674446    -0.20000
C2182       C  0.86252099  0.00611787  0.49384859    -0.10900
C2183       C  0.87080289  0.95723024  0.53542426    -0.15000
C2184       C  0.88061154  0.94916602  0.56387069    -0.28900
C2185       C  0.88432023  0.03423084  0.48394049    -0.03200
C2186       C  0.87089598  0.04790569  0.48699994    -0.39700
H2187       H  0.91009021  0.00929776  0.51227829     0.13100
H2188       H  0.90479019  0.97689857  0.53469658     0.12700
H2189       H  0.84531244  0.98160474  0.50458134     0.12100
H2190       H  0.85063712  0.01384540  0.48161956     0.12400
H2191       H  0.85980760  0.94913000  0.52093551     0.15100
H2192       H  0.89097906  0.95752422  0.57953199     0.13900
H2193       H  0.89857595  0.03799813  0.47495605     0.11600
H2194       H  0.85713717  0.04443649  0.49890847     0.13600
C2195       C  0.87978490  0.72748613  0.09824119     0.19700
C2196       C  0.89499546  0.73810979  0.08406690    -0.18400
C2197       C  0.89575135  0.75789054  0.08937118    -0.10700
C2198       C  0.88108203  0.76765343  0.10868826     0.21900
C2199       C  0.86613329  0.75698210  0.12375903    -0.20000
C2200       C  0.86537566  0.73719489  0.11847029    -0.10900
C2201       C  0.88048792  0.78885723  0.11295536    -0.15000
C2202       C  0.89050042  0.80080747  0.09119020    -0.28900
C2203       C  0.87935902  0.70652645  0.09033574    -0.03200
C2204       C  0.86781694  0.69424584  0.10799101    -0.39700
H2205       H  0.90638449  0.73106402  0.06865607     0.13100
H2206       H  0.90789311  0.76532798  0.07829105     0.12700
H2207       H  0.85466987  0.76405879  0.13889780     0.12100
H2208       H  0.85319195  0.72982239  0.12950620     0.12400
H2209       H  0.87039325  0.79488817  0.13300082     0.15100
H2210       H  0.90001779  0.79521924  0.06976497     0.13900
H2211       H  0.88932206  0.70090815  0.06958945     0.11600
H2212       H  0.85828929  0.69923540  0.12994140     0.13600
C2213       C  0.02494194  0.88621062  0.04857912     0.19700
C2214       C  0.01287131  0.90143663  0.05901113    -0.18400
C2215       C  0.99322695  0.89872479  0.06334122    -0.10700
C2216       C  0.98519983  0.88058138  0.05765306     0.21900
C2217       C  0.99726424  0.86537975  0.04725351    -0.20000
C2218       C  0.01687859  0.86807127  0.04302845    -0.10900
C2219       C  0.96433694  0.87698850  0.06072440    -0.15000
C2220       C  0.95215666  0.88797209  0.08085360    -0.28900
C2221       C  0.04587721  0.88959377  0.04564008    -0.03200
C2222       C  0.05801702  0.87796798  0.02679510    -0.39700
H2223       H  0.01865583  0.91554835  0.06360597     0.13100
H2224       H  0.98441045  0.91093726  0.07045876     0.12700
H2225       H  0.99150122  0.85125270  0.04273366     0.12100
H2226       H  0.02562255  0.85578203  0.03615974     0.12400
H2227       H  0.95886323  0.86440704  0.04638299     0.15100
H2228       H  0.95740583  0.90007551  0.09693375     0.13900
H2229       H  0.05149893  0.90218809  0.05969380     0.11600
H2230       H  0.05264187  0.86577209  0.01119895     0.13600
C2231       C  0.88442735  0.86597184  0.87760866     0.19700
C2232       C  0.89901350  0.87410230  0.85630955    -0.18400
C2233       C  0.89781255  0.87453449  0.81698038    -0.10700
C2234       C  0.88200538  0.86665001  0.79812812     0.21900
C2235       C  0.86764543  0.85810926  0.81942886    -0.20000
C2236       C  0.86876563  0.85783616  0.85877101    -0.10900
C2237       C  0.88038012  0.86634163  0.75637442    -0.15000
C2238       C  0.88887761  0.87911841  0.73402980    -0.28900
C2239       C  0.88621080  0.86582666  0.91928576    -0.03200
C2240       C  0.87105134  0.86649405  0.94232019    -0.39700
H2241       H  0.91133430  0.88022870  0.87017244     0.13100
H2242       H  0.90948239  0.88067533  0.80152939     0.12700
H2243       H  0.85548746  0.85166591  0.80557084     0.12100
H2244       H  0.85754021  0.85093346  0.87426240     0.12400
H2245       H  0.87129767  0.85555127  0.74367425     0.15100
H2246       H  0.89706343  0.89069866  0.74626391     0.13900
H2247       H  0.90045220  0.86654041  0.93135982     0.11600
H2248       H  0.85675336  0.86742230  0.93063625     0.13600
C2249       C  0.87126372  0.87369434  0.29815726     0.19700
C2250       C  0.87000415  0.85732783  0.32047788    -0.18400
C2251       C  0.86792502  0.85886932  0.35953380    -0.10700
C2252       C  0.86686239  0.87688791  0.37711482     0.21900
C2253       C  0.86731785  0.89326955  0.35471986    -0.20000
C2254       C  0.86962345  0.89173590  0.31561233    -0.10900
C2255       C  0.86571419  0.87892668  0.41874254    -0.15000
C2256       C  0.87521586  0.86703387  0.44177667    -0.28900
C2257       C  0.87333489  0.87123625  0.25672735    -0.03200
C2258       C  0.88059495  0.88451490  0.23370113    -0.39700
H2259       H  0.87081927  0.84326742  0.30767307     0.13100
H2260       H  0.86705495  0.84595314  0.37589466     0.12700
H2261       H  0.86627721  0.90729455  0.36761298     0.12100
H2262       H  0.86983407  0.90466024  0.29923119     0.12400
H2263       H  0.85856710  0.89142411  0.43048931     0.15100
H2264       H  0.88386376  0.85559914  0.42979006     0.13900
H2265       H  0.86891438  0.85764344  0.24478263     0.11600
H2266       H  0.88579474  0.89791500  0.24506283     0.13600
C2267       C  0.87454930  0.97958305  0.04782154     0.19700
C2268       C  0.88999639  0.99044953  0.03548452    -0.18400
C2269       C  0.88713133  0.00899602  0.02214237    -0.10700
C2270       C  0.86874437  0.01713607  0.02149005     0.21900
C2271       C  0.85338563  0.00644212  0.03467366    -0.20000
C2272       C  0.85619753  0.98782218  0.04745791    -0.10900
C2273       C  0.86533163  0.03716056  0.00983163    -0.15000
C2274       C  0.87560511  0.04585900  0.98312464    -0.28900
C2275       C  0.87800542  0.95987807  0.06157679    -0.03200
C2276       C  0.86499764  0.94601392  0.05768016    -0.39700
H2277       H  0.90429289  0.98452595  0.03596574     0.13100
H2278       H  0.89937082  0.01709700  0.01329629     0.12700
H2279       H  0.83915689  0.01253292  0.03509620     0.12100
H2280       H  0.84403567  0.98009092  0.05782661     0.12400
H2281       H  0.85374160  0.04490187  0.02343839     0.15100
H2282       H  0.88643906  0.03790450  0.96772462     0.13900
H2283       H  0.89199808  0.95639974  0.07297472     0.11600
H2284       H  0.85160234  0.94900681  0.04338395     0.13600
C2285       C  0.62240401  0.76560892  0.69493625     0.19700
C2286       C  0.61812265  0.75430058  0.72612352    -0.18400
C2287       C  0.61888363  0.73439273  0.72345793    -0.10700
C2288       C  0.62362280  0.72527954  0.68915403     0.21900
C2289       C  0.62804710  0.73657224  0.65801699    -0.20000
C2290       C  0.62729853  0.75650133  0.66068814    -0.10900
C2291       C  0.62425884  0.70410441  0.68524033    -0.15000
C2292       C  0.61333796  0.69273463  0.70630407    -0.28900
C2293       C  0.62121971  0.78677309  0.69885689    -0.03200
C2294       C  0.63141099  0.79857919  0.67731179    -0.39700
H2295       H  0.61438151  0.76090769  0.75283436     0.13100
H2296       H  0.61600639  0.72624228  0.74849926     0.12700
H2297       H  0.63175009  0.72994301  0.63130390     0.12100
H2298       H  0.63017767  0.76464923  0.63565087     0.12400
H2299       H  0.63347373  0.69779784  0.66388356     0.15100
H2300       H  0.60338648  0.69905981  0.72624390     0.13900
H2301       H  0.61216438  0.79275755  0.72082632     0.11600
H2302       H  0.64127674  0.79268056  0.65672419     0.13600
C2303       C  0.48456498  0.87571897  0.68683929     0.19700
C2304       C  0.49643333  0.89146766  0.68149882    -0.18400
C2305       C  0.51620809  0.88973608  0.68542627    -0.10700
C2306       C  0.52467573  0.87203050  0.69421499     0.21900
C2307       C  0.51281865  0.85628112  0.69965644    -0.20000
C2308       C  0.49301381  0.85801588  0.69574837    -0.10900
C2309       C  0.54571385  0.86949931  0.69811891    -0.15000
C2310       C  0.55828001  0.88094301  0.68109803    -0.28900
C2311       C  0.46357065  0.87842630  0.68259031    -0.03200
C2312       C  0.45057029  0.86665544  0.69742739    -0.39700
H2313       H  0.49035289  0.90527942  0.67474414     0.13100
H2314       H  0.52469675  0.90240528  0.68213964     0.12700
H2315       H  0.51893158  0.84248497  0.70640451     0.12100
H2316       H  0.48451442  0.84537066  0.69916030     0.12400
H2317       H  0.55098487  0.85735116  0.71398951     0.15100
H2318       H  0.55319663  0.89248745  0.66346169     0.13900
H2319       H  0.45862932  0.89115870  0.66814113     0.11600
H2320       H  0.45510788  0.85433547  0.71349582     0.13600
C2321       C  0.62709942  0.97851829  0.72245907     0.19700
C2322       C  0.61126613  0.98784800  0.73847895    -0.18400
C2323       C  0.61291124  0.00632020  0.75358064    -0.10700
C2324       C  0.63045727  0.01591068  0.75252696     0.21900
C2325       C  0.64609603  0.00674637  0.73549191    -0.20000
C2326       C  0.64449456  0.98828216  0.72075387    -0.10900
C2327       C  0.63292786  0.03579320  0.76671697    -0.15000
C2328       C  0.62152305  0.04449169  0.79222656    -0.28900
C2329       C  0.62516735  0.95867529  0.70767337    -0.03200
C2330       C  0.63966069  0.94600740  0.70909517    -0.39700
H2331       H  0.59764017  0.98073646  0.73968798     0.13100
H2332       H  0.60035559  0.01310328  0.76531940     0.12700
H2333       H  0.65967252  0.01391203  0.73360200     0.12100
H2334       H  0.65684865  0.98180361  0.70754460     0.12400
H2335       H  0.64496558  0.04360444  0.75566640     0.15100
H2336       H  0.60976379  0.03687958  0.80470643     0.13900
H2337       H  0.61121361  0.95396352  0.69822128     0.11600
H2338       H  0.65308864  0.95016485  0.72193114     0.13600
C2339       C  0.77583659  0.88167739  0.61881949     0.19700
C2340       C  0.76007656  0.88219596  0.59439930    -0.18400
C2341       C  0.74150685  0.88148745  0.60862622    -0.10700
C2342       C  0.73832164  0.88055297  0.64774597     0.21900
C2343       C  0.75406749  0.88081213  0.67221218    -0.20000
C2344       C  0.77263378  0.88121080  0.65796785    -0.10900
C2345       C  0.71876328  0.87984734  0.66375243    -0.15000
C2346       C  0.70432493  0.87105363  0.64582990    -0.28900
C2347       C  0.79545080  0.88208772  0.60299430    -0.03200
C2348       C  0.81000876  0.87259742  0.61919618    -0.39700
H2349       H  0.76215095  0.88289653  0.56421205     0.13100
H2350       H  0.72967772  0.88197666  0.58897566     0.12700
H2351       H  0.75199811  0.88046180  0.70244033     0.12100
H2352       H  0.78445225  0.88143696  0.67766449     0.12400
H2353       H  0.71637471  0.88613332  0.69144915     0.15100
H2354       H  0.70698053  0.86381706  0.61915656     0.13900
H2355       H  0.79779073  0.88975959  0.57696675     0.11600
H2356       H  0.80728360  0.86396446  0.64385034     0.13600
C2357       C  0.62827852  0.72105460  0.19641029     0.19700
C2358       C  0.63978597  0.73195134  0.17271856    -0.18400
C2359       C  0.63956861  0.75189308  0.17493747    -0.10700
C2360       C  0.62774168  0.76147550  0.20106406     0.21900
C2361       C  0.61669792  0.75055676  0.22556382    -0.20000
C2362       C  0.61694418  0.73062558  0.22339152    -0.10900
C2363       C  0.62667842  0.78269123  0.20422493    -0.15000
C2364       C  0.63260177  0.79459538  0.17716752    -0.28900
C2365       C  0.62899270  0.69983146  0.19287722    -0.03200
C2366       C  0.61541850  0.68831772  0.20644268    -0.39700
H2367       H  0.64896201  0.72499501  0.15222288     0.13100
H2368       H  0.64888674  0.75958814  0.15641012     0.12700
H2369       H  0.60773276  0.75749258  0.24646217     0.12100
H2370       H  0.60843046  0.72289629  0.24334738     0.12400
H2371       H  0.62010544  0.78873789  0.22936212     0.15100
H2372       H  0.63858592  0.78898618  0.15120201     0.13900
H2373       H  0.64104037  0.69347946  0.17814411     0.11600
H2374       H  0.60299907  0.69432611  0.22030398     0.13600
C2375       C  0.48180263  0.87305380  0.19524055     0.19700
C2376       C  0.49339327  0.86506437  0.22343423    -0.18400
C2377       C  0.51326827  0.86600528  0.22117376    -0.10700
C2378       C  0.52199928  0.87479827  0.19025327     0.21900
C2379       C  0.51041743  0.88268134  0.16199754    -0.20000
C2380       C  0.49058120  0.88168525  0.16418306    -0.10900
C2381       C  0.54302132  0.87643118  0.18659130    -0.15000
C2382       C  0.55558502  0.86486227  0.20404926    -0.28900
C2383       C  0.46072057  0.87181613  0.19895574    -0.03200
C2384       C  0.44843351  0.88321402  0.18029817    -0.39700
H2385       H  0.48703792  0.85828935  0.24759922     0.13100
H2386       H  0.52162859  0.86015464  0.24404497     0.12700
H2387       H  0.51675859  0.88946475  0.13782896     0.12100
H2388       H  0.48231718  0.88746298  0.14112496     0.12400
H2389       H  0.54833142  0.88719318  0.16753298     0.15100
H2390       H  0.55064995  0.85348182  0.22195537     0.13900
H2391       H  0.45513762  0.86141205  0.21848063     0.11600
H2392       H  0.45363831  0.89417319  0.16170492     0.13600
C2393       C  0.62589609  0.86679706  0.97287953     0.19700
C2394       C  0.64167205  0.86095857  0.95135928    -0.18400
C2395       C  0.64090558  0.86097466  0.91199491    -0.10700
C2396       C  0.62421657  0.86675471  0.89306445     0.21900
C2397       C  0.60830381  0.87234811  0.91452602    -0.20000
C2398       C  0.60912822  0.87249762  0.95404450    -0.10900
C2399       C  0.62280260  0.86642019  0.85114673    -0.15000
C2400       C  0.63798118  0.86869058  0.82851175    -0.28900
C2401       C  0.62736339  0.86564763  0.01466934    -0.03200
C2402       C  0.61640082  0.87559215  0.03916027    -0.39700
H2403       H  0.65467493  0.85623967  0.96510380     0.13100
H2404       H  0.65326338  0.85598561  0.89657672     0.12700
H2405       H  0.59518855  0.87662559  0.90065101     0.12100
H2406       H  0.59650924  0.87660485  0.96959257     0.12400
H2407       H  0.60871155  0.86514153  0.83857711     0.15100
H2408       H  0.65189612  0.87150888  0.84072418     0.13900
H2409       H  0.63864477  0.85656634  0.02581822     0.11600
H2410       H  0.60576030  0.88564090  0.02900922     0.13600
C2411       C  0.62540439  0.87351615  0.39389288     0.19700
C2412       C  0.61189349  0.86511369  0.41743112    -0.18400
C2413       C  0.61110814  0.86983245  0.45571732    -0.10700
C2414       C  0.62376475  0.88322167  0.47130961     0.21900
C2415       C  0.63674745  0.89226701  0.44760429    -0.20000
C2416       C  0.63765877  0.88742010  0.40926738    -0.10900
C2417       C  0.62422336  0.88715324  0.51248103    -0.15000
C2418       C  0.62246874  0.87284665  0.53704909    -0.28900
C2419       C  0.62539297  0.86821519  0.35320056    -0.03200
C2420       C  0.64015232  0.87111533  0.32986879    -0.39700
H2421       H  0.60200049  0.85470596  0.40621269     0.13100
H2422       H  0.60061096  0.86296681  0.47315933     0.12700
H2423       H  0.64650978  0.90275751  0.45895802     0.12100
H2424       H  0.64777556  0.89479951  0.39186314     0.12400
H2425       H  0.62815196  0.90126774  0.52255112     0.15100
H2426       H  0.62065730  0.85839165  0.52641341     0.13900
H2427       H  0.61242487  0.86199552  0.34182570     0.11600
H2428       H  0.65337057  0.87701801  0.34053959     0.13600
C2429       C  0.63242884  0.00813008  0.28115813     0.19700
C2430       C  0.61625734  0.99769356  0.27048553    -0.18400
C2431       C  0.61811374  0.97934647  0.25480031    -0.10700
C2432       C  0.63625241  0.97095599  0.24989169     0.21900
C2433       C  0.65234953  0.98117022  0.26170302    -0.20000
C2434       C  0.65050985  0.99954620  0.27698716    -0.10900
C2435       C  0.63890077  0.95118746  0.23496962    -0.15000
C2436       C  0.62645185  0.94246732  0.21161195    -0.28900
C2437       C  0.63012310  0.02789607  0.29644447    -0.03200
C2438       C  0.64318728  0.04145578  0.29035164    -0.39700
H2439       H  0.60215388  0.00384760  0.27388318     0.13100
H2440       H  0.60531766  0.97166596  0.24732969     0.12700
H2441       H  0.66644816  0.97491006  0.25901226     0.12100
H2442       H  0.66326793  0.00687506  0.28601589     0.12400
H2443       H  0.65170000  0.94354062  0.24362190     0.15100
H2444       H  0.61398347  0.95014520  0.20148756     0.13900
H2445       H  0.61683230  0.03175310  0.31027973     0.11600
H2446       H  0.65564301  0.03801443  0.27347037     0.13600
C2447       C  0.73489734  0.87491384  0.14618625     0.19700
C2448       C  0.75050102  0.87470668  0.17097040    -0.18400
C2449       C  0.76910150  0.87370174  0.15707609    -0.10700
C2450       C  0.77244080  0.87314522  0.11798150     0.21900
C2451       C  0.75685831  0.87390770  0.09318982    -0.20000
C2452       C  0.73825571  0.87466373  0.10707732    -0.10900
C2453       C  0.79203197  0.87300512  0.10244444    -0.15000
C2454       C  0.80674775  0.86448939  0.12010637    -0.28900
C2455       C  0.71530499  0.87587495  0.16173645    -0.03200
C2456       C  0.70052060  0.86762937  0.14406569    -0.39700
H2457       H  0.74828091  0.87520207  0.20116163     0.13100
H2458       H  0.78083292  0.87383317  0.17697303     0.12700
H2459       H  0.75909409  0.87388779  0.06299623     0.12100
H2460       H  0.72656856  0.87545834  0.08713924     0.12400
H2461       H  0.79436086  0.88009006  0.07575377     0.15100
H2462       H  0.80428730  0.85647255  0.14565837     0.13900
H2463       H  0.71315744  0.88279497  0.18892622     0.11600
H2464       H  0.70291455  0.85957436  0.11821103     0.13600
loop_ 
_geom_bond_atom_site_label_1 
_geom_bond_atom_site_label_2 
_geom_bond_distance 
_geom_bond_site_symmetry_2 
_ccdc_geom_bond_type 
O1           C17   1.274       .  A
O1           Zn7   2.017       .  S
C2           O18   1.275       .  A
C2           O15   1.276       .  A
C2         C2402   1.483       .  S
O3           C16   1.277       .  A
O3          Cd10   2.088       .  S
O4           C22   1.276       .  A
O4          Cd13   2.082       .  S
O5           C19   1.274       .  A
O5           Cd9   2.070       .  S
O6           C17   1.277       .  A
O6           Cd9   2.083       .  S
Zn7          O18   2.013       .  S
Zn7          O20   1.999       .  S
Zn7          O12   1.933       .  S
O8           C19   1.276       .  A
O8          Cd13   2.075       .  S
Cd9          O11   2.075       .  S
Cd9          O12   1.999       .  S
Cd10         O14   2.074       .  S
Cd10         O23   2.080       .  S
Cd10         O12   2.007       .  S
O11          C21   1.276       .  A
O12         Cd13   2.004       .  S
Cd13         O15   2.090       .  S
O14          C21   1.274       .  A
C16          O20   1.271       .  A
C16        C2456   1.474       .  S
C17        C2364   1.479       .  S
C19        C2382   1.478       .  S
C21        C2420   1.477       .  S
C22          O23   1.277       .  A
C22        C2436   1.483       .  S
O24          C40   1.271       .  A
O24         Zn30   1.997       .  S
C25          O41   1.270       .  A
C25          O38   1.278       .  A
C25        C2418   1.470       .  S
O26          C39   1.277       .  A
O26         Cd33   2.092       .  S
O27          C45   1.278       .  A
O27         Cd36   2.093       .  S
O28          C42   1.280       .  A
O28         Cd32   2.097       .  S
O29          C40   1.279       .  A
O29         Cd32   2.105       .  S
Zn30         O41   1.988       .  S
Zn30         O43   2.010       .  S
Zn30         O35   1.917       .  S
O31          C42   1.274       .  A
O31         Cd36   2.064       .  S
Cd32         O34   2.089       .  S
Cd32         O35   2.009       .  S
Cd33         O37   2.079       .  S
Cd33         O46   2.066       .  S
Cd33         O35   1.994       .  S
O34          C44   1.279       .  A
O35         Cd36   2.005       .  S
Cd36         O38   2.101       .  S
O37          C44   1.277       .  A
C39          O43   1.272       .  A
C39        C2346   1.479       .  S
C40        C2294   1.479       .  S
C42        C2310   1.478       .  S
C44        C2400   1.479       .  S
C45          O46   1.274       .  A
C45        C2330   1.477       .  S
O47          C63   1.277       .  A
O47         Zn53   2.034       .  S
C48          O64   1.276       .  A
C48          O61   1.277       .  A
C48        C2258   1.480       .  S
O49          C62   1.274       .  A
O49         Cd56   2.070       .  S
O50          C68   1.278       .  A
O50         Cd59   2.089       .  S
O51          C65   1.277       .  A
O51         Cd55   2.081       .  S
O52          C63   1.275       .  A
O52         Cd55   2.074       .  S
Zn53         O64   2.011       .  S
Zn53         O66   2.016       .  S
Zn53         O58   1.943       .  S
O54          C65   1.276       .  A
O54         Cd59   2.085       .  S
Cd55         O57   2.078   1_554  S
Cd55         O58   1.995       .  S
Cd56         O60   2.066       .  S
Cd56         O69   2.062       .  S
Cd56         O58   1.998       .  S
O57          C67   1.277       .  A
O58         Cd59   2.005       .  S
Cd59         O61   2.087       .  S
O60          C67   1.274   1_554  A
C62          O66   1.272       .  A
C62        C2454   1.475       .  S
C63        C2202   1.480       .  S
C65        C2220   1.484       .  S
C67        C2240   1.474       .  S
C68          O69   1.273       .  A
C68        C2276   1.476       .  S
O70          C86   1.277       .  A
O70         Zn76   2.035       .  S
C71          O87   1.276       .  A
C71          O84   1.274       .  A
C71        C2238   1.476       .  S
O72          C85   1.280       .  A
O72         Cd79   2.103       .  S
O73          C91   1.274       .  A
O73         Cd82   2.067       .  S
O74          C88   1.276       .  A
O74         Cd78   2.082       .  S
O75          C86   1.273       .  A
O75         Cd78   2.067       .  S
Zn76         O87   2.022       .  S
Zn76         O89   2.008       .  S
Zn76         O81   1.940       .  S
O77          C88   1.272       .  A
O77         Cd82   2.063       .  S
Cd78         O80   2.061       .  S
Cd78         O81   1.995       .  S
Cd79         O83   2.090       .  S
Cd79         O92   2.085       .  S
Cd79         O81   2.014       .  S
O80          C90   1.274       .  A
O81         Cd82   1.995       .  S
Cd82         O84   2.068       .  S
O83          C90   1.279       .  A
C85          O89   1.273       .  A
C85        C2348   1.480       .  S
C86        C2148   1.479       .  S
C88        C2166   1.477       .  S
C90        C2256   1.474       .  S
C91          O92   1.277       .  A
C91        C2184   1.478       .  S
O93         C109   1.272       .  A
O93         Zn99   2.010       .  S
C94         O110   1.273       .  A
C94         O107   1.277       .  A
C94        C2112   1.480       .  S
O95         C108   1.273       .  A
O95        Cd102   2.073       .  S
O96         C114   1.280       .  A
O96        Cd105   2.103       .  S
O97         C111   1.274       .  A
O97        Cd101   2.065       .  S
O98         C109   1.276       .  A
O98        Cd101   2.074       .  S
Zn99        O110   1.994       .  S
Zn99        O112   2.012       .  S
Zn99        O104   1.932       .  S
O100        C111   1.279       .  A
O100       Cd105   2.098       .  S
Cd101       O103   2.071       .  S
Cd101       O104   1.994       .  S
Cd102       O106   2.069       .  S
Cd102       O115   2.050       .  S
Cd102       O104   1.994       .  S
O103        C113   1.274       .  A
O104       Cd105   2.016       .  S
Cd105       O107   2.093       .  S
O106        C113   1.275       .  A
C108        O112   1.273       .  A
C108       C2130   1.476       .  S
C109       C2076   1.475       .  S
C111       C2058   1.479       .  S
C113       C2094   1.475       .  S
C114        O115   1.272       .  A
C114       C2186   1.475       .  S
O116        C132   1.273       .  A
O116       Zn122   2.010       .  S
C117        O133   1.270       .  A
C117        O130   1.276       .  A
C117       C2096   1.471       .  S
O118        C131   1.276       .  A
O118       Cd125   2.096       .  S
O119        C137   1.276       .  A
O119       Cd128   2.081       .  S
O120        C134   1.279       .  A
O120       Cd124   2.098       .  S
O121        C132   1.277       .  A
O121       Cd124   2.088       .  S
Zn122       O133   1.994       .  S
Zn122       O135   1.991       .  S
Zn122       O127   1.933       .  S
O123        C134   1.273       .  A
O123       Cd128   2.061       .  S
Cd124       O126   2.080   1_556  S
Cd124       O127   2.011       .  S
Cd125       O129   2.079   1_556  S
Cd125       O138   2.073       .  S
Cd125       O127   2.011       .  S
O126        C136   1.277       .  A
O127       Cd128   2.004       .  S
Cd128       O130   2.085       .  S
O129        C136   1.278       .  A
C131        O135   1.272       .  A
C131       C2042   1.482       .  S
C132       C2022   1.479       .  S
C134       C2004   1.479       .  S
C136       C2114   1.478       .  S
C137        O138   1.276       .  A
C137       C2274   1.480       .  S
O139        C155   1.272       .  A
O139       Zn145   2.010       .  S
C140        O156   1.270       .  A
C140        O153   1.279       .  A
C140       C1968   1.474       .  S
O141        C154   1.274       .  A
O141       Cd148   2.091       .  S
O142        C160   1.279       .  A
O142       Cd151   2.105       .  S
O143        C157   1.278       .  A
O143       Cd147   2.087       .  S
O144        C155   1.277       .  A
O144       Cd147   2.091       .  S
Zn145       O156   1.992       .  S
Zn145       O158   1.989       .  S
Zn145       O150   1.932       .  S
O146        C157   1.276       .  A
O146       Cd151   2.076       .  S
Cd147       O149   2.074       .  S
Cd147       O150   2.011       .  S
Cd148       O152   2.077       .  S
Cd148       O161   2.061       .  S
Cd148       O150   2.008       .  S
O149        C159   1.275       .  A
O150       Cd151   2.018       .  S
Cd151       O153   2.102       .  S
O152        C159   1.277       .  A
C154        O158   1.271       .  A
C154       C2132   1.482       .  S
C155       C1950   1.479       .  S
C157       C1934   1.482       .  S
C159       C1986   1.477       .  S
C160        O161   1.273       .  A
C160       C2438   1.479       .  S
O162        C178   1.274       .  A
O162       Zn168   2.025       .  S
C163        O179   1.274       .  A
C163        O176   1.276       .  A
C163       C1988   1.478       .  S
O164        C177   1.277       .  A
O164       Cd171   2.087       .  S
O165        C183   1.277       .  A
O165       Cd174   2.089       .  S
O166        C180   1.273       .  A
O166       Cd170   2.060       .  S
O167        C178   1.275       .  A
O167       Cd170   2.077       .  S
Zn168       O179   2.010       .  S
Zn168       O181   2.015       .  S
Zn168       O173   1.940       .  S
O169        C180   1.277       .  A
O169       Cd174   2.082       .  S
Cd170       O172   2.070       .  S
Cd170       O173   1.998       .  S
Cd171       O175   2.080       .  S
Cd171       O184   2.068       .  S
Cd171       O173   2.005       .  S
O172        C182   1.274       .  A
O173       Cd174   2.011       .  S
Cd174       O176   2.086       .  S
O175        C182   1.277       .  A
C177        O181   1.275       .  A
C177       C2040   1.480       .  S
C178       C1916   1.480       .  S
C180       C1898   1.475       .  S
C182       C1970   1.478       .  S
C183        O184   1.275       .  A
C183       C2328   1.483       .  S
O185        C201   1.273       .  A
O185       Zn191   1.995       .  S
C186        O202   1.273       .  A
C186        O199   1.278       .  A
C186       C1808   1.482       .  S
O187        C200   1.276       .  A
O187       Cd194   2.089       .  S
O188        C206   1.278       .  A
O188       Cd197   2.087   1_556  S
O189        C203   1.278       .  A
O189       Cd193   2.088       .  S
O190        C201   1.278       .  A
O190       Cd193   2.095       .  S
Zn191       O202   2.015       .  S
Zn191       O204   2.018       .  S
Zn191       O196   1.937       .  S
O192        C203   1.276       .  A
O192       Cd197   2.081       .  S
Cd193       O195   2.111       .  S
Cd193       O196   2.021       .  S
Cd194       O198   2.067   1_554  S
Cd194       O207   2.064   1_554  S
Cd194       O196   1.996       .  S
O195        C205   1.281       .  A
O196       Cd197   2.008       .  S
Cd197       O199   2.096       .  S
O198        C205   1.274   1_556  A
C200        O204   1.274       .  A
C200       C1878   1.483       .  S
C201       C1842   1.480       .  S
C203       C2222   1.483       .  S
C205       C1860   1.483   1_554  S
C206        O207   1.274       .  A
C206       C1824   1.476       .  S
O208        C224   1.271       .  A
O208       Zn214   1.998       .  S
C209        O225   1.272       .  A
C209        O222   1.276       .  A
C209       C1754   1.475       .  S
O210        C223   1.273       .  A
O210       Cd217   2.071       .  S
O211        C229   1.277       .  A
O211       Cd220   2.082       .  S
O212        C226   1.277       .  A
O212       Cd216   2.082       .  S
O213        C224   1.278       .  A
O213       Cd216   2.098       .  S
Zn214       O225   2.005       .  S
Zn214       O227   2.006       .  S
Zn214       O219   1.927       .  S
O215        C226   1.274       .  A
O215       Cd220   2.063       .  S
Cd216       O218   2.097       .  S
Cd216       O219   2.012       .  S
Cd217       O221   2.059       .  S
Cd217       O230   2.066       .  S
Cd217       O219   1.992       .  S
O218        C228   1.278       .  A
O219       Cd220   2.001       .  S
Cd220       O222   2.083       .  S
O221        C228   1.275       .  A
C223        O227   1.274       .  A
C223       C1788   1.474       .  S
C224       C1826   1.474       .  S
C226       C2168   1.476       .  S
C228       C1772   1.483       .  S
C229        O230   1.274       .  A
C229       C1844   1.475       .  S
O231        C247   1.272       .  A
O231       Zn237   2.004       .  S
C232        O248   1.276       .  A
C232        O245   1.272       .  A
C232       C1680   1.476       .  S
O233        C246   1.277       .  A
O233       Cd240   2.091       .  S
O234        C252   1.273       .  A
O234       Cd243   2.061       .  S
O235        C249   1.274       .  A
O235       Cd239   2.070       .  S
O236        C247   1.278       .  A
O236       Cd239   2.089       .  S
Zn237       O248   2.030       .  S
Zn237       O250   2.019       .  S
Zn237       O242   1.937       .  S
O238        C249   1.275       .  A
O238       Cd243   2.074       .  S
Cd239       O241   2.088       .  S
Cd239       O242   2.005       .  S
Cd240       O244   2.069       .  S
Cd240       O253   2.083       .  S
Cd240       O242   2.001       .  S
O241        C251   1.277       .  A
O242       Cd243   1.993       .  S
Cd243       O245   2.061       .  S
O244        C251   1.276       .  A
C246        O250   1.276       .  A
C246       C1880   1.482       .  S
C247       C1698   1.476       .  S
C249       C2384   1.476       .  S
C251       C1734   1.482       .  S
C252        O253   1.277       .  A
C252       C1718   1.472       .  S
O254        C270   1.273       .  A
O254       Zn260   1.999       .  S
C255        O271   1.274       .  A
C255        O268   1.278       .  A
C255       C1644   1.484       .  S
O256        C269   1.272       .  A
O256       Cd263   2.070       .  S
O257        C275   1.278       .  A
O257       Cd266   2.094       .  S
O258        C272   1.278       .  A
O258       Cd262   2.084       .  S
O259        C270   1.275       .  A
O259       Cd262   2.086       .  S
Zn260       O271   2.021       .  S
Zn260       O273   2.006       .  S
Zn260       O265   1.934       .  S
O261        C272   1.276       .  A
O261       Cd266   2.076       .  S
Cd262       O264   2.087       .  S
Cd262       O265   2.012       .  S
Cd263       O267   2.062       .  S
Cd263       O276   2.050       .  S
Cd263       O265   1.998       .  S
O264        C274   1.276       .  A
O265       Cd266   2.008       .  S
Cd266       O268   2.095       .  S
O267        C274   1.274       .  A
C269        O273   1.273       .  A
C269       C1790   1.475       .  S
C270       C1716   1.478       .  S
C272       C2312   1.480       .  S
C274       C1662   1.480       .  S
C275        O276   1.272       .  A
C275       C1700   1.473       .  S
O277        C293   1.277       .  A
O277       Zn283   2.025       .  S
C278        O294   1.278       .  A
C278        O291   1.274       .  A
C278       C1572   1.478       .  S
O279        C292   1.277       .  A
O279       Cd286   2.083       .  S
O280        C298   1.276       .  A
O280       Cd289   2.064       .  S
O281        C295   1.277       .  A
O281       Cd285   2.091       .  S
O282        C293   1.277       .  A
O282       Cd285   2.080       .  S
Zn283       O294   2.041       .  S
Zn283       O296   2.020       .  S
Zn283       O288   1.942       .  S
O284        C295   1.273       .  A
O284       Cd289   2.066       .  S
Cd285       O287   2.092       .  S
Cd285       O288   2.002       .  S
Cd286       O290   2.063       .  S
Cd286       O299   2.082       .  S
Cd286       O288   2.002       .  S
O287        C297   1.278       .  A
O288       Cd289   1.984       .  S
Cd289       O291   2.063       .  S
O290        C297   1.274       .  A
C292        O296   1.273       .  A
C292       C1626   1.479       .  S
C293       C1590   1.480       .  S
C295       C1932   1.479       .  S
C297       C1736   1.475       .  S
C298        O299   1.276       .  A
C298       C1608   1.479       .  S
O300        C316   1.271       .  A
O300       Zn306   1.993       .  S
C301        O317   1.271       .  A
C301        O314   1.275       .  A
C301       C1536   1.477       .  S
O302        C315   1.279       .  A
O302       Cd309   2.110       .  S
O303        C321   1.274       .  A
O303       Cd312   2.057       .  S
O304        C318   1.274       .  A
O304       Cd308   2.071       .  S
O305        C316   1.277       .  A
O305       Cd308   2.095       .  S
Zn306       O317   2.005       .  S
Zn306       O319   1.986       .  S
Zn306       O311   1.916       .  S
O307        C318   1.277       .  A
O307       Cd312   2.077       .  S
Cd308       O310   2.087       .  S
Cd308       O311   2.008       .  S
Cd309       O313   2.072       .  S
Cd309       O322   2.099       .  S
Cd309       O311   2.011       .  S
O310        C320   1.278       .  A
O311       Cd312   1.998       .  S
Cd312       O314   2.083       .  S
O313        C320   1.275       .  A
C315        O319   1.270       .  A
C315       C1554   1.476       .  S
C316       C1610   1.472       .  S
C318       C1896   1.476       .  S
C320       C1664   1.477       .  S
C321        O322   1.280       .  A
C321       C1592   1.475       .  S
O323        C339   1.276       .  A
O323       Zn329   2.020       .  S
C324        O340   1.278       .  A
C324        O337   1.275       .  A
C324       C1484   1.483       .  S
O325        C338   1.276       .  A
O325       Cd332   2.082       .  S
O326        C344   1.276       .  A
O326       Cd335   2.070       .  S
O327        C341   1.273       .  A
O327       Cd331   2.070       .  S
O328        C339   1.276       .  A
O328       Cd331   2.077       .  S
Zn329       O340   2.044       .  S
Zn329       O342   2.015       .  S
Zn329       O334   1.945       .  S
O330        C341   1.277       .  A
O330       Cd335   2.083       .  S
Cd331       O333   2.087       .  S
Cd331       O334   2.002       .  S
Cd332       O336   2.069       .  S
Cd332       O345   2.074       .  S
Cd332       O334   2.004       .  S
O333        C343   1.277       .  A
O334       Cd335   1.998       .  S
Cd335       O337   2.074       .  S
O336        C343   1.274       .  A
C338        O342   1.273       .  A
C338       C1628   1.477       .  S
C339       C1518   1.476       .  S
C341       C2060   1.480       .  S
C343       C1770   1.478       .  S
C344        O345   1.276       .  A
C344       C1500   1.475       .  S
O346        C362   1.276       .  A
O346       Zn352   2.007       .  S
C347        O363   1.278       .  A
C347        O360   1.271       .  A
C347       C1464   1.477       .  S
O348        C361   1.279       .  A
O348       Cd355   2.091       .  S
O349        C367   1.274       .  A
O349       Cd358   2.058   1_554  S
O350        C364   1.279       .  A
O350       Cd354   2.104       .  S
O351        C362   1.278       .  A
O351       Cd354   2.092       .  S
Zn352       O363   2.049       .  S
Zn352       O365   2.019       .  S
Zn352       O357   1.942       .  S
O353        C364   1.272       .  A
O353       Cd358   2.052       .  S
Cd354       O356   2.109       .  S
Cd354       O357   2.017       .  S
Cd355       O359   2.070       .  S
Cd355       O368   2.089   1_556  S
Cd355       O357   1.999       .  S
O356        C366   1.281       .  A
O357       Cd358   1.979       .  S
Cd358       O360   2.054       .  S
O359        C366   1.275       .  A
C361        O365   1.274       .  A
C361       C1556   1.482       .  S
C362       C1502   1.480       .  S
C364       C2006   1.479       .  S
C366       C1862   1.483       .  S
C367        O368   1.276       .  A
C367       C1520   1.480       .  S
O369        C385   1.272       .  A
O369       Zn375   2.002       .  S
C370        O386   1.275       .  A
C370        O383   1.271       .  A
C370       C2078   1.474       .  S
O371        C384   1.281       .  A
O371       Cd378   2.115       .  S
O372        C390   1.272       .  A
O372       Cd381   2.046       .  S
O373        C387   1.277       .  A
O373       Cd377   2.086       .  S
O374        C385   1.278       .  A
O374       Cd377   2.090       .  S
Zn375       O386   2.027       .  S
Zn375       O388   2.002       .  S
Zn375       O380   1.928       .  S
O376        C387   1.273       .  A
O376       Cd381   2.061       .  S
Cd377       O379   2.082       .  S
Cd377       O380   2.000       .  S
Cd378       O382   2.082       .  S
Cd378       O391   2.111       .  S
Cd378       O380   2.013       .  S
O379        C389   1.277       .  A
O380       Cd381   1.981       .  S
Cd381       O383   2.057       .  S
O382        C389   1.278       .  A
C384        O388   1.273       .  A
C384       C1428   1.481       .  S
C385       C1412   1.472       .  S
C387       C1374   1.477       .  S
C389       C1446   1.481       .  S
C390        O391   1.281       .  A
C390       C1392   1.475       .  S
O392        C408   1.277       .  A
O392       Zn398   2.030       .  S
C393        O409   1.278       .  A
C393        O406   1.274       .  A
C393       C2024   1.478       .  S
O394        C407   1.277       .  A
O394       Cd401   2.084       .  S
O395        C413   1.276       .  A
O395       Cd404   2.064       .  S
O396        C410   1.278       .  A
O396       Cd400   2.086       .  S
O397        C408   1.275       .  A
O397       Cd400   2.073       .  S
Zn398       O409   2.039       .  S
Zn398       O411   2.003       .  S
Zn398       O403   1.940       .  S
O399        C410   1.273       .  A
O399       Cd404   2.063   1_556  S
Cd400       O402   2.086       .  S
Cd400       O403   1.997       .  S
Cd401       O405   2.062       .  S
Cd401       O414   2.088   1_556  S
Cd401       O403   2.001       .  S
O402        C412   1.278       .  A
O403       Cd404   1.983   1_556  S
Cd404       O406   2.064   1_554  S
O405        C412   1.273       .  A
C407        O411   1.272       .  A
C407       C1340   1.475       .  S
C408       C1394   1.480       .  S
C410       C1320   1.477       .  S
C412       C1356   1.475       .  S
C413        O414   1.277       .  A
C413       C1410   1.480       .  S
O415        C431   1.273       .  A
O415       Zn421   2.002       .  S
C416        O432   1.274       .  A
C416        O429   1.278       .  A
C416       C2204   1.480       .  S
O417        C430   1.274       .  A
O417       Cd424   2.079       .  S
O418        C436   1.278       .  A
O418       Cd427   2.091   1_556  S
O419        C433   1.275       .  A
O419       Cd423   2.072       .  S
O420        C431   1.275       .  A
O420       Cd423   2.083       .  S
Zn421       O432   2.015       .  S
Zn421       O434   2.023       .  S
Zn421       O426   1.939       .  S
O422        C433   1.277       .  A
O422       Cd427   2.088       .  S
Cd423       O425   2.079       .  S
Cd423       O426   2.001       .  S
Cd424       O428   2.075       .  S
Cd424       O437   2.058       .  S
Cd424       O426   1.998       .  S
O425        C435   1.275       .  A
O426       Cd427   2.015       .  S
Cd427       O429   2.091       .  S
O428        C435   1.276       .  A
C430        O434   1.274       .  A
C430       C1302   1.480       .  S
C431       C1286   1.478       .  S
C433       C1248   1.480       .  S
C435       C1358   1.479       .  S
C436        O437   1.273   1_556  A
C436       C1266   1.473       .  S
O438        C454   1.275       .  A
O438       Zn444   2.010       .  S
C439        O455   1.274       .  A
C439        O452   1.276       .  A
C439       C2150   1.481       .  S
O440        C453   1.275       .  A
O440       Cd447   2.080       .  S
O441        C459   1.275       .  A
O441       Cd450   2.074       .  S
O442        C456   1.275       .  A
O442       Cd446   2.075       .  S
O443        C454   1.276       .  A
O443       Cd446   2.083       .  S
Zn444       O455   2.025       .  S
Zn444       O457   2.030       .  S
Zn444       O449   1.945       .  S
O445        C456   1.278       .  A
O445       Cd450   2.088       .  S
Cd446       O448   2.096       .  S
Cd446       O449   2.011       .  S
Cd447       O451   2.068       .  S
Cd447       O460   2.077       .  S
Cd447       O449   2.001       .  S
O448        C458   1.279       .  A
O449       Cd450   2.008       .  S
Cd450       O452   2.079       .  S
O451        C458   1.274       .  A
C453        O457   1.276       .  A
C453       C1230   1.481       .  S
C454       C1268   1.479       .  S
C456       C1212   1.482       .  S
C458       C1448   1.479       .  S
C459        O460   1.277       .  A
C459       C1284   1.476       .  S
O461        C477   1.276       .  A
O461       Zn467   2.023       .  S
C462        O478   1.277       .  A
C462        O475   1.273       .  A
C462       C2366   1.479       .  S
O463        C476   1.275       .  A
O463       Cd470   2.084       .  S
O464        C482   1.275       .  A
O464       Cd473   2.072       .  S
O465        C479   1.276       .  A
O465       Cd469   2.084       .  S
O466        C477   1.274       .  A
O466       Cd469   2.067       .  S
Zn467       O478   2.042       .  S
Zn467       O480   2.021       .  S
Zn467       O472   1.951       .  S
O468        C479   1.277       .  A
O468       Cd473   2.084       .  S
Cd469       O471   2.086       .  S
Cd469       O472   2.002       .  S
Cd470       O474   2.070       .  S
Cd470       O483   2.073       .  S
Cd470       O472   2.004       .  S
O471        C481   1.276       .  A
O472       Cd473   1.998       .  S
Cd473       O475   2.065       .  S
O474        C481   1.275       .  A
C476        O480   1.275       .  A
C476       C1304   1.482       .  S
C477       C1158   1.474       .  S
C479       C1140   1.484       .  S
C481       C1196   1.480       .  S
C482        O483   1.276       .  A
C482       C1178   1.475       .  S
O484        C500   1.277       .  A
O484       Zn490   2.023       .  S
C485        O501   1.278       .  A
C485        O498   1.271       .  A
C485       C2292   1.477       .  S
O486        C499   1.274       .  A
O486       Cd493   2.073       .  S
O487        C505   1.272       .  A
O487       Cd496   2.059       .  S
O488        C502   1.278       .  A
O488       Cd492   2.098       .  S
O489        C500   1.276       .  A
O489       Cd492   2.075       .  S
Zn490       O501   2.054       .  S
Zn490       O503   2.031       .  S
Zn490       O495   1.956       .  S
O491        C502   1.273       .  A
O491       Cd496   2.059       .  S
Cd492       O494   2.090       .  S
Cd492       O495   2.009       .  S
Cd493       O497   2.069       .  S
Cd493       O506   2.072       .  S
Cd493       O495   2.001       .  S
O494        C504   1.277       .  A
O495       Cd496   1.987       .  S
Cd496       O498   2.049       .  S
O497        C504   1.275       .  A
C499        O503   1.276       .  A
C499       C1232   1.481       .  S
C500       C1176   1.476       .  S
C502       C1104   1.478       .  S
C504       C1122   1.481       .  S
C505        O506   1.276       .  A
C505       C1160   1.473       .  S
O507        C523   1.272       .  A
O507       Zn513   2.005       .  S
C508        O524   1.276       .  A
C508        O521   1.273       .  A
C508       C1952   1.480       .  S
O509        C522   1.279       .  A
O509       Cd516   2.104       .  S
O510        C528   1.273       .  A
O510       Cd519   2.056       .  S
O511        C525   1.275       .  A
O511       Cd515   2.079       .  S
O512        C523   1.277       .  A
O512       Cd515   2.080       .  S
Zn513       O524   2.033       .  S
Zn513       O526   2.004       .  S
Zn513       O518   1.937       .  S
O514        C525   1.276       .  A
O514       Cd519   2.077       .  S
Cd515       O517   2.078       .  S
Cd515       O518   2.001       .  S
Cd516       O520   2.079       .  S
Cd516       O529   2.093       .  S
Cd516       O518   2.012       .  S
O517        C527   1.276       .  A
O518       Cd519   1.991       .  S
Cd519       O521   2.070       .  S
O520        C527   1.277       .  A
C522        O526   1.272       .  A
C522       C1430   1.480       .  S
C523       C1068   1.473       .  S
C525       C1050   1.480       .  S
C527       C1194   1.479       .  S
C528        O529   1.279       .  A
C528       C1086   1.473       .  S
O530        C546   1.277       .  A
O530       Zn536   2.020       .  S
C531        O547   1.277       .  A
C531        O544   1.273       .  A
C531       C1914   1.480       .  S
O532        C545   1.279       .  A
O532       Cd539   2.100       .  S
O533        C551   1.273       .  A
O533       Cd542   2.053       .  S
O534        C548   1.274       .  A
O534       Cd538   2.076       .  S
O535        C546   1.276       .  A
O535       Cd538   2.072       .  S
Zn536       O547   2.040       .  S
Zn536       O549   1.995       .  S
Zn536       O541   1.934       .  S
O537        C548   1.276       .  A
O537       Cd542   2.067       .  S
Cd538       O540   2.081       .  S
Cd538       O541   1.995       .  S
Cd539       O543   2.077       .  S
Cd539       O552   2.096       .  S
Cd539       O541   2.008       .  S
O540        C550   1.277       .  A
O541       Cd542   1.980       .  S
Cd542       O544   2.067       .  S
O543        C550   1.274       .  A
C545        O549   1.271       .  A
C545       C1338   1.476       .  S
C546       C1088   1.476       .  S
C548       C1032   1.478       .  S
C550       C1124   1.479       .  S
C551        O552   1.280       .  A
C551       C1070   1.474       .  S
O553        C569   1.280       .  A
O553       Zn559   2.061       .  S
C554        O570   1.278       .  A
C554        O567   1.274       .  A
C554        C980   1.475       .  S
O555        C568   1.274       .  A
O555       Cd562   2.071       .  S
O556        C574   1.275       .  A
O556       Cd565   2.080       .  S
O557        C571   1.274       .  A
O557       Cd561   2.076   1_554  S
O558        C569   1.274       .  A
O558       Cd561   2.058   1_554  S
Zn559       O570   2.034       .  S
Zn559       O572   2.037       .  S
Zn559       O564   1.953       .  S
O560        C571   1.276       .  A
O560       Cd565   2.081       .  S
Cd561       O563   2.078       .  S
Cd561       O564   1.989   1_556  S
Cd562       O566   2.066   1_554  S
Cd562       O575   2.059       .  S
Cd562       O564   1.994       .  S
O563        C573   1.276       .  A
O564       Cd565   1.999       .  S
Cd565       O567   2.064       .  S
O566        C573   1.273       .  A
C568        O572   1.277       .  A
C568        C998   1.480       .  S
C569       C1806   1.479       .  S
C571       C1250   1.482       .  S
C573        C962   1.477       .  S
C574        O575   1.274       .  A
C574       C1014   1.479       .  S
O576        C592   1.276       .  A
O576       Zn582   2.043       .  S
C577        O593   1.274       .  A
C577        O590   1.280       .  A
C577        C960   1.474       .  S
O578        C591   1.277       .  A
O578       Cd585   2.092       .  S
O579        C597   1.279       .  A
O579       Cd588   2.101       .  S
O580        C594   1.273       .  A
O580       Cd584   2.062       .  S
O581        C592   1.271       .  A
O581       Cd584   2.053       .  S
Zn582       O593   2.005       .  S
Zn582       O595   2.027       .  S
Zn582       O587   1.943       .  S
O583        C594   1.277       .  A
O583       Cd588   2.096       .  S
Cd584       O586   2.056       .  S
Cd584       O587   1.988       .  S
Cd585       O589   2.081       .  S
Cd585       O598   2.069       .  S
Cd585       O587   2.001       .  S
O586        C596   1.272       .  A
O587       Cd588   2.014       .  S
Cd588       O590   2.095       .  S
O589        C596   1.277       .  A
C591        O595   1.276       .  A
C591        C926   1.486       .  S
C592       C1752   1.475       .  S
C594       C1214   1.480       .  S
C596        C978   1.472       .  S
C597        O598   1.276       .  A
C597        C942   1.486       .  S
O599        C615   1.272       .  A
O599       Zn605   2.008       .  S
C600        O616   1.271       .  A
C600        O613   1.280       .  A
C600        C888   1.475       .  S
O601        C614   1.274       .  A
O601       Cd608   2.071       .  S
O602        C620   1.280       .  A
O602       Cd611   2.106       .  S
O603        C617   1.278       .  A
O603       Cd607   2.078       .  S
O604        C615   1.278       .  A
O604       Cd607   2.103       .  S
Zn605       O616   1.991       .  S
Zn605       O618   2.015       .  S
Zn605       O610   1.926       .  S
O606        C617   1.276       .  A
O606       Cd611   2.078       .  S
Cd607       O609   2.079       .  S
Cd607       O610   2.009       .  S
Cd608       O612   2.066       .  S
Cd608       O621   2.060       .  S
Cd608       O610   1.996       .  S
O609        C619   1.277       .  A
O610       Cd611   2.016       .  S
Cd611       O613   2.107       .  S
O612        C619   1.274       .  A
C614        O618   1.272       .  A
C614        C908   1.475       .  S
C615       C1482   1.481       .  S
C617       C1376   1.479       .  S
C619        C870   1.474       .  S
C620        O621   1.273       .  A
C620        C944   1.478       .  S
O622        C638   1.273       .  A
O622       Zn628   2.008       .  S
C623        O639   1.274       .  A
C623        O636   1.276       .  A
C623        C872   1.479       .  S
O624        C637   1.275       .  A
O624       Cd631   2.074       .  S
O625        C643   1.277       .  A
O625       Cd634   2.088       .  S
O626        C640   1.277       .  A
O626       Cd630   2.081       .  S
O627        C638   1.278       .  A
O627       Cd630   2.094       .  S
Zn628       O639   2.003       .  S
Zn628       O641   2.016       .  S
Zn628       O633   1.929       .  S
O629        C640   1.274       .  A
O629       Cd634   2.064       .  S
Cd630       O632   2.084       .  S
Cd630       O633   2.005       .  S
Cd631       O635   2.069       .  S
Cd631       O644   2.052       .  S
Cd631       O633   1.994       .  S
O632        C642   1.278       .  A
O633       Cd634   2.006       .  S
Cd634       O636   2.085       .  S
O635        C642   1.274       .  A
C637        O641   1.272       .  A
C637        C854   1.476       .  S
C638       C1466   1.477       .  S
C640       C1322   1.476       .  S
C642        C890   1.479   1_556  S
C643        O644   1.271       .  A
C643       C1016   1.472       .  S
O645        C661   1.272       .  A
O645       Zn651   2.005       .  S
C646        O662   1.272       .  A
C646        O659   1.274       .  A
C646        C800   1.477       .  S
O647        C660   1.275       .  A
O647       Cd654   2.079       .  S
O648        C666   1.276       .  A
O648       Cd657   2.084       .  S
O649        C663   1.275       .  A
O649       Cd653   2.076       .  S
O650        C661   1.278       .  A
O650       Cd653   2.094       .  S
Zn651       O662   1.995       .  S
Zn651       O664   2.001       .  S
Zn651       O656   1.931       .  S
O652        C663   1.277       .  A
O652       Cd657   2.076       .  S
Cd653       O655   2.078       .  S
Cd653       O656   2.006       .  S
Cd654       O658   2.067       .  S
Cd654       O667   2.064       .  S
Cd654       O656   2.001       .  S
O655        C665   1.277       .  A
O656       Cd657   2.010       .  S
Cd657       O659   2.082       .  S
O658        C665   1.274       .  A
C660        O664   1.271       .  A
C660        C906   1.473       .  S
C661       C1574   1.478       .  S
C663       C1052   1.479       .  S
C665        C818   1.474       .  S
C666        O667   1.275       .  A
C666        C834   1.479       .  S
O668        C684   1.274       .  A
O668       Zn674   2.021       .  S
C669        O685   1.274       .  A
C669        O682   1.275       .  A
C669        C816   1.477       .  S
O670        C683   1.276       .  A
O670       Cd677   2.080       .  S
O671        C689   1.276       .  A
O671       Cd680   2.082       .  S
O672        C686   1.273       .  A
O672       Cd676   2.065       .  S
O673        C684   1.275       .  A
O673       Cd676   2.074       .  S
Zn674       O685   2.003       .  S
Zn674       O687   2.007       .  S
Zn674       O679   1.935       .  S
O675        C686   1.276       .  A
O675       Cd680   2.077       .  S
Cd676       O678   2.067       .  S
Cd676       O679   1.994       .  S
Cd677       O681   2.075       .  S
Cd677       O690   2.071       .  S
Cd677       O679   2.002       .  S
O678        C688   1.275       .  A
O679       Cd680   2.009       .  S
Cd680       O682   2.080       .  S
O681        C688   1.274       .  A
C683        O687   1.272       .  A
C683        C852   1.475       .  S
C684       C1538   1.479       .  S
C686       C1034   1.475       .  S
C688        C798   1.475       .  S
C689        O690   1.276       .  A
C689        C780   1.480       .  S
O691        C707   1.274       .  A
O691       Zn697   2.018       .  S
C692        O708   1.275       .  A
C692        O705   1.275       .  A
C692        C744   1.479       .  S
O693        C706   1.275       .  A
O693       Cd700   2.084       .  S
O694        C712   1.276       .  A
O694       Cd703   2.079       .  S
O695        C709   1.276       .  A
O695       Cd699   2.080       .  S
O696        C707   1.276       .  A
O696       Cd699   2.077       .  S
Zn697       O708   2.015       .  S
Zn697       O710   2.021       .  S
Zn697       O702   1.945       .  S
O698        C709   1.276       .  A
O698       Cd703   2.083       .  S
Cd699       O701   2.076       .  S
Cd699       O702   2.005       .  S
Cd700       O704   2.066       .  S
Cd700       O713   2.075       .  S
Cd700       O702   2.004       .  S
O701        C711   1.276       .  A
O702       Cd703   2.008       .  S
Cd703       O705   2.080       .  S
O704        C711   1.273       .  A
C706        O710   1.275       .  A
C706        C996   1.482       .  S
C707       C1682   1.478       .  S
C709       C1142   1.483       .  S
C711        C762   1.474       .  S
C712        O713   1.276       .  A
C712        C836   1.477       .  S
O714        C730   1.279       .  A
O714       Zn720   2.056       .  S
C715        O731   1.276       .  A
C715        O728   1.276       .  A
C715        C764   1.473       .  S
O716        C729   1.274       .  A
O716       Cd723   2.075       .  S
O717        C735   1.277       .  A
O717       Cd726   2.083       .  S
O718        C732   1.277       .  A
O718       Cd722   2.087       .  S
O719        C730   1.275       .  A
O719       Cd722   2.068       .  S
Zn720       O731   2.015       .  S
Zn720       O733   2.043       .  S
Zn720       O725   1.953       .  S
O721        C732   1.272       .  A
O721       Cd726   2.066       .  S
Cd722       O724   2.082       .  S
Cd722       O725   1.999       .  S
Cd723       O727   2.067       .  S
Cd723       O736   2.069       .  S
Cd723       O725   1.994       .  S
O724        C734   1.277       .  A
O725       Cd726   2.003       .  S
Cd726       O728   2.072       .  S
O727        C734   1.275       .  A
C729        O733   1.277       .  A
C729        C924   1.482       .  S
C730       C1646   1.482       .  S
C732       C1106   1.480       .  S
C734        C746   1.476       .  S
C735        O736   1.273       .  A
C735        C782   1.475       .  S
C737        C745   1.487       .  S
C737        C738   1.404       .  A
C737        C742   1.407       .  A
C738        C739   1.401       .  A
C738        H747   1.083       .  S
C739        C740   1.408       .  A
C739        H748   1.081       .  S
C740        C743   1.487   1_556  S
C740        C741   1.403       .  A
C741        C742   1.397       .  A
C741        H749   1.083       .  S
C742        H750   1.082       .  S
C743        H751   1.087       .  S
C743        C744   1.347       .  D
C744        H752   1.085       .  S
C745        H753   1.087       .  S
C745        C746   1.346       .  D
C746        H754   1.086       .  S
C755        C763   1.479       .  S
C755        C756   1.402       .  A
C755        C760   1.405       .  A
C756        C757   1.399       .  A
C756        H765   1.083       .  S
C757        C758   1.406       .  A
C757        H766   1.083       .  S
C758        C761   1.480       .  S
C758        C759   1.402       .  A
C759        C760   1.397       .  A
C759        H767   1.083       .  S
C760        H768   1.083       .  S
C761        H769   1.087       .  S
C761        C762   1.343       .  D
C762        H770   1.087       .  S
C763        H771   1.087       .  S
C763        C764   1.345       .  D
C764        H772   1.086       .  S
C773        C781   1.485       .  S
C773        C774   1.403       .  A
C773        C778   1.405       .  A
C774        C775   1.400       .  A
C774        H783   1.083       .  S
C775        C776   1.409       .  A
C775        H784   1.081       .  S
C776        C779   1.489       .  S
C776        C777   1.405       .  A
C777        C778   1.399       .  A
C777        H785   1.083       .  S
C778        H786   1.082       .  S
C779        H787   1.087       .  S
C779        C780   1.349       .  D
C780        H788   1.084       .  S
C781        H789   1.087       .  S
C781        C782   1.345       .  D
C782        H790   1.086       .  S
C791        C799   1.483       .  S
C791        C792   1.404       .  A
C791        C796   1.406       .  A
C792        C793   1.397       .  A
C792        H801   1.083       .  S
C793        C794   1.405       .  A
C793        H802   1.082       .  S
C794        C797   1.482       .  S
C794        C795   1.404       .  A
C795        C796   1.398       .  A
C795        H803   1.083       .  S
C796        H804   1.081       .  S
C797        H805   1.087       .  S
C797        C798   1.346       .  D
C798        H806   1.086       .  S
C799        H807   1.087       .  S
C799        C800   1.348       .  D
C800        H808   1.085       .  S
C809        C817   1.483       .  S
C809        C810   1.404       .  A
C809        C814   1.406       .  A
C810        C811   1.399       .  A
C810        H819   1.083       .  S
C811        C812   1.406       .  A
C811        H820   1.082       .  S
C812        C815   1.480   1_554  S
C812        C813   1.403       .  A
C813        C814   1.396       .  A
C813        H821   1.083       .  S
C814        H822   1.082       .  S
C815        H823   1.087       .  S
C815        C816   1.346       .  D
C816        H824   1.086       .  S
C817        H825   1.087       .  S
C817        C818   1.345       .  D
C818        H826   1.086       .  S
C827        C835   1.485       .  S
C827        C828   1.405       .  A
C827        C832   1.405       .  A
C828        C829   1.401       .  A
C828        H837   1.083       .  S
C829        C830   1.406       .  A
C829        H838   1.082       .  S
C830        C833   1.484       .  S
C830        C831   1.403       .  A
C831        C832   1.397       .  A
C831        H839   1.083       .  S
C832        H840   1.082       .  S
C833        H841   1.087       .  S
C833        C834   1.347       .  D
C834        H842   1.086       .  S
C835        H843   1.087       .  S
C835        C836   1.347       .  D
C836        H844   1.086       .  S
C845        C853   1.484       .  S
C845        C846   1.402       .  A
C845        C850   1.408       .  A
C846        C847   1.398       .  A
C846        H855   1.083       .  S
C847        C848   1.408       .  A
C847        H856   1.082       .  S
C848        C851   1.485       .  S
C848        C849   1.402       .  A
C849        C850   1.399       .  A
C849        H857   1.083       .  S
C850        H858   1.082       .  S
C851        H859   1.087       .  S
C851        C852   1.344       .  D
C852        H860   1.086       .  S
C853        H861   1.087       .  S
C853        C854   1.344       .  D
C854        H862   1.086       .  S
C863        C871   1.483       .  S
C863        C864   1.403       .  A
C863        C868   1.407       .  A
C864        C865   1.396       .  A
C864        H873   1.083       .  S
C865        C866   1.405       .  A
C865        H874   1.082       .  S
C866        C869   1.484       .  S
C866        C867   1.404       .  A
C867        C868   1.401       .  A
C867        H875   1.083       .  S
C868        H876   1.082       .  S
C869        H877   1.087       .  S
C869        C870   1.345       .  D
C870        H878   1.086       .  S
C871        H879   1.087       .  S
C871        C872   1.347       .  D
C872        H880   1.085       .  S
C881        C889   1.485       .  S
C881        C882   1.401       .  A
C881        C886   1.409       .  A
C882        C883   1.398       .  A
C882        H891   1.083       .  S
C883        C884   1.408       .  A
C883        H892   1.083       .  S
C884        C887   1.487       .  S
C884        C885   1.403       .  A
C885        C886   1.402       .  A
C885        H893   1.083       .  S
C886        H894   1.083       .  S
C887        H895   1.086       .  S
C887        C888   1.343       .  D
C888        H896   1.087       .  S
C889        H897   1.087       .  S
C889        C890   1.345       .  D
C890        H898   1.086       .  S
C899        C907   1.482       .  S
C899        C900   1.401       .  A
C899        C904   1.407       .  A
C900        C901   1.398       .  A
C900        H909   1.083       .  S
C901        C902   1.408       .  A
C901        H910   1.082       .  S
C902        C905   1.484       .  S
C902        C903   1.401       .  A
C903        C904   1.398       .  A
C903        H911   1.083       .  S
C904        H912   1.082       .  S
C905        H913   1.087       .  S
C905        C906   1.343       .  D
C906        H914   1.086       .  S
C907        H915   1.087       .  S
C907        C908   1.344       .  D
C908        H916   1.086       .  S
C917        C925   1.494       .  S
C917        C918   1.406       .  A
C917        C922   1.408       .  A
C918        C919   1.401       .  A
C918        H927   1.083       .  S
C919        C920   1.406       .  A
C919        H928   1.082       .  S
C920        C923   1.491       .  S
C920        C921   1.405       .  A
C921        C922   1.402       .  A
C921        H929   1.083       .  S
C922        H930   1.081       .  S
C923        H931   1.087       .  S
C923        C924   1.348       .  D
C924        H932   1.086       .  S
C925        H933   1.087       .  S
C925        C926   1.351       .  D
C926        H934   1.084       .  S
C935        C943   1.492       .  S
C935        C936   1.405       .  A
C935        C940   1.407       .  A
C936        C937   1.404       .  A
C936        H945   1.083       .  S
C937        C938   1.408       .  A
C937        H946   1.082       .  S
C938        C941   1.492       .  S
C938        C939   1.405       .  A
C939        C940   1.399       .  A
C939        H947   1.083       .  S
C940        H948   1.082       .  S
C941        H949   1.087       .  S
C941        C942   1.351       .  D
C942        H950   1.085       .  S
C943        H951   1.087       .  S
C943        C944   1.346       .  D
C944        H952   1.086       .  S
C953        C961   1.484       .  S
C953        C954   1.402       .  A
C953        C958   1.408       .  A
C954        C955   1.397       .  A
C954        H963   1.083       .  S
C955        C956   1.407       .  A
C955        H964   1.083       .  S
C956        C959   1.484       .  S
C956        C957   1.402       .  A
C957        C958   1.400       .  A
C957        H965   1.083       .  S
C958        H966   1.082       .  S
C959        H967   1.087       .  S
C959        C960   1.343       .  D
C960        H968   1.087       .  S
C961        H969   1.087       .  S
C961        C962   1.344       .  D
C962        H970   1.086       .  S
C971        C979   1.482       .  S
C971        C972   1.401       .  A
C971        C976   1.408       .  A
C972        C973   1.397       .  A
C972        H981   1.084       .  S
C973        C974   1.407       .  A
C973        H982   1.082       .  S
C974        C977   1.481       .  S
C974        C975   1.402       .  A
C975        C976   1.399       .  A
C975        H983   1.084       .  S
C976        H984   1.082       .  S
C977        H985   1.087       .  S
C977        C978   1.343       .  D
C978        H986   1.087       .  S
C979        H987   1.087       .  S
C979        C980   1.344       .  D
C980        H988   1.086       .  S
C989        C997   1.489       .  S
C989        C990   1.405       .  A
C989        C994   1.407       .  A
C990        C991   1.401       .  A
C990        H999   1.083       .  S
C991        C992   1.407       .  A
C991       H1000   1.082       .  S
C992        C995   1.489       .  S
C992        C993   1.404       .  A
C993        C994   1.400       .  A
C993       H1001   1.083       .  S
C994       H1002   1.082       .  S
C995       H1003   1.087       .  S
C995        C996   1.348       .  D
C996       H1004   1.085       .  S
C997       H1005   1.087       .  S
C997        C998   1.347       .  D
C998       H1006   1.085       .  S
C1007      C1015   1.487       .  S
C1007      C1008   1.404       .  A
C1007      C1012   1.407       .  A
C1008      C1009   1.401       .  A
C1008      H1017   1.083       .  S
C1009      C1010   1.408       .  A
C1009      H1018   1.081       .  S
C1010      C1013   1.485       .  S
C1010      C1011   1.402       .  A
C1011      C1012   1.395       .  A
C1011      H1019   1.084       .  S
C1012      H1020   1.081       .  S
C1013      H1021   1.087       .  S
C1013      C1014   1.347   1_556  D
C1014      H1022   1.085       .  S
C1015      H1023   1.087       .  S
C1015      C1016   1.345       .  D
C1016      H1024   1.085       .  S
C1025      C1033   1.488       .  S
C1025      C1026   1.404       .  A
C1025      C1030   1.407       .  A
C1026      C1027   1.401       .  A
C1026      H1035   1.084       .  S
C1027      C1028   1.409       .  A
C1027      H1036   1.081       .  S
C1028      C1031   1.487       .  S
C1028      C1029   1.402       .  A
C1029      C1030   1.395       .  A
C1029      H1037   1.085       .  S
C1030      H1038   1.081       .  S
C1031      H1039   1.088       .  S
C1031      C1032   1.346       .  D
C1032      H1040   1.086       .  S
C1033      H1041   1.087       .  S
C1033      C1034   1.347       .  D
C1034      H1042   1.085       .  S
C1043      C1051   1.489       .  S
C1043      C1044   1.403       .  A
C1043      C1048   1.407       .  A
C1044      C1045   1.399       .  A
C1044      H1053   1.084       .  S
C1045      C1046   1.409       .  A
C1045      H1054   1.080       .  S
C1046      C1049   1.491       .  S
C1046      C1047   1.405       .  A
C1047      C1048   1.400       .  A
C1047      H1055   1.084       .  S
C1048      H1056   1.081       .  S
C1049      H1057   1.087       .  S
C1049      C1050   1.348       .  D
C1050      H1058   1.084       .  S
C1051      H1059   1.087       .  S
C1051      C1052   1.347       .  D
C1052      H1060   1.084       .  S
C1061      C1069   1.484       .  S
C1061      C1062   1.401       .  A
C1061      C1066   1.409       .  A
C1062      C1063   1.398       .  A
C1062      H1071   1.083       .  S
C1063      C1064   1.408       .  A
C1063      H1072   1.083       .  S
C1064      C1067   1.482       .  S
C1064      C1065   1.401       .  A
C1065      C1066   1.398       .  A
C1065      H1073   1.083       .  S
C1066      H1074   1.082       .  S
C1067      H1075   1.087       .  S
C1067      C1068   1.342       .  D
C1068      H1076   1.087       .  S
C1069      H1077   1.086       .  S
C1069      C1070   1.342       .  D
C1070      H1078   1.087       .  S
C1079      C1087   1.485       .  S
C1079      C1080   1.402       .  A
C1079      C1084   1.408       .  A
C1080      C1081   1.397       .  A
C1080      H1089   1.083       .  S
C1081      C1082   1.407       .  A
C1081      H1090   1.083       .  S
C1082      C1085   1.484       .  S
C1082      C1083   1.401       .  A
C1083      C1084   1.399       .  A
C1083      H1091   1.083       .  S
C1084      H1092   1.082       .  S
C1085      H1093   1.087       .  S
C1085      C1086   1.343       .  D
C1086      H1094   1.087       .  S
C1087      H1095   1.087   1_554  S
C1087      C1088   1.346   1_554  D
C1088      H1096   1.085       .  S
C1097      C1105   1.490       .  S
C1097      C1098   1.402       .  A
C1097      C1102   1.410       .  A
C1098      C1099   1.397       .  A
C1098      H1107   1.084       .  S
C1099      C1100   1.408       .  A
C1099      H1108   1.081       .  S
C1100      C1103   1.491       .  S
C1100      C1101   1.404       .  A
C1101      C1102   1.403       .  A
C1101      H1109   1.084       .  S
C1102      H1110   1.081       .  S
C1103      H1111   1.086       .  S
C1103      C1104   1.347       .  D
C1104      H1112   1.085       .  S
C1105      H1113   1.087       .  S
C1105      C1106   1.345       .  D
C1106      H1114   1.084       .  S
C1115      C1123   1.488       .  S
C1115      C1116   1.404       .  A
C1115      C1120   1.407       .  A
C1116      C1117   1.400       .  A
C1116      H1125   1.083       .  S
C1117      C1118   1.407       .  A
C1117      H1126   1.082       .  S
C1118      C1121   1.488       .  S
C1118      C1119   1.405       .  A
C1119      C1120   1.401       .  A
C1119      H1127   1.083       .  S
C1120      H1128   1.082       .  S
C1121      H1129   1.087       .  S
C1121      C1122   1.349       .  D
C1122      H1130   1.085       .  S
C1123      H1131   1.087       .  S
C1123      C1124   1.347       .  D
C1124      H1132   1.086       .  S
C1133      C1141   1.493       .  S
C1133      C1134   1.405       .  A
C1133      C1138   1.408       .  A
C1134      C1135   1.402       .  A
C1134      H1143   1.084       .  S
C1135      C1136   1.408       .  A
C1135      H1144   1.081       .  S
C1136      C1139   1.493       .  S
C1136      C1137   1.404       .  A
C1137      C1138   1.400       .  A
C1137      H1145   1.084       .  S
C1138      H1146   1.081       .  S
C1139      H1147   1.087       .  S
C1139      C1140   1.349       .  D
C1140      H1148   1.084       .  S
C1141      H1149   1.087       .  S
C1141      C1142   1.349       .  D
C1142      H1150   1.084       .  S
C1151      C1159   1.480       .  S
C1151      C1152   1.401       .  A
C1151      C1156   1.407       .  A
C1152      C1153   1.397       .  A
C1152      H1161   1.081       .  S
C1153      C1154   1.407       .  A
C1153      H1162   1.082       .  S
C1154      C1157   1.482   1_556  S
C1154      C1155   1.403       .  A
C1155      C1156   1.398       .  A
C1155      H1163   1.083       .  S
C1156      H1164   1.082       .  S
C1157      H1165   1.087       .  S
C1157      C1158   1.345       .  D
C1158      H1166   1.086       .  S
C1159      H1167   1.086       .  S
C1159      C1160   1.343       .  D
C1160      H1168   1.086       .  S
C1169      C1177   1.482       .  S
C1169      C1170   1.403       .  A
C1169      C1174   1.406       .  A
C1170      C1171   1.399       .  A
C1170      H1179   1.083       .  S
C1171      C1172   1.407       .  A
C1171      H1180   1.083       .  S
C1172      C1175   1.483       .  S
C1172      C1173   1.402       .  A
C1173      C1174   1.398       .  A
C1173      H1181   1.083       .  S
C1174      H1182   1.083       .  S
C1175      H1183   1.087       .  S
C1175      C1176   1.345       .  D
C1176      H1184   1.086       .  S
C1177      H1185   1.087       .  S
C1177      C1178   1.345       .  D
C1178      H1186   1.086       .  S
C1187      C1195   1.486       .  S
C1187      C1188   1.404       .  A
C1187      C1192   1.406       .  A
C1188      C1189   1.399       .  A
C1188      H1197   1.083       .  S
C1189      C1190   1.407       .  A
C1189      H1198   1.081       .  S
C1190      C1193   1.488       .  S
C1190      C1191   1.404       .  A
C1191      C1192   1.400       .  A
C1191      H1199   1.083       .  S
C1192      H1200   1.082       .  S
C1193      H1201   1.087       .  S
C1193      C1194   1.348       .  D
C1194      H1202   1.085       .  S
C1195      H1203   1.087       .  S
C1195      C1196   1.348       .  D
C1196      H1204   1.086       .  S
C1205      C1213   1.494       .  S
C1205      C1206   1.405       .  A
C1205      C1210   1.410   1_455  A
C1206      C1207   1.402   1_455  A
C1206      H1215   1.084       .  S
C1207      C1208   1.408       .  A
C1207      H1216   1.082       .  S
C1208      C1211   1.490       .  S
C1208      C1209   1.402       .  A
C1209      C1210   1.399       .  A
C1209      H1217   1.084       .  S
C1210      H1218   1.080   1_655  S
C1211      H1219   1.087       .  S
C1211      C1212   1.346       .  D
C1212      H1220   1.085       .  S
C1213      H1221   1.087       .  S
C1213      C1214   1.348       .  D
C1214      H1222   1.084       .  S
C1223      C1231   1.491       .  S
C1223      C1224   1.405       .  A
C1223      C1228   1.408       .  A
C1224      C1225   1.400       .  A
C1224      H1233   1.084       .  S
C1225      C1226   1.407       .  A
C1225      H1234   1.082       .  S
C1226      C1229   1.489       .  S
C1226      C1227   1.404       .  A
C1227      C1228   1.400       .  A
C1227      H1235   1.084       .  S
C1228      H1236   1.081       .  S
C1229      H1237   1.087       .  S
C1229      C1230   1.348       .  D
C1230      H1238   1.086       .  S
C1231      H1239   1.087       .  S
C1231      C1232   1.348       .  D
C1232      H1240   1.085       .  S
C1241      C1249   1.492       .  S
C1241      C1242   1.403       .  A
C1241      C1246   1.409       .  A
C1242      C1243   1.398   1_455  A
C1242      H1251   1.084       .  S
C1243      C1244   1.409       .  A
C1243      H1252   1.080       .  S
C1244      C1247   1.494       .  S
C1244      C1245   1.405       .  A
C1245      C1246   1.402   1_655  A
C1245      H1253   1.084       .  S
C1246      H1254   1.081       .  S
C1247      H1255   1.087       .  S
C1247      C1248   1.348       .  D
C1248      H1256   1.084       .  S
C1249      H1257   1.087       .  S
C1249      C1250   1.347       .  D
C1250      H1258   1.084       .  S
C1259      C1267   1.484       .  S
C1259      C1260   1.402       .  A
C1259      C1264   1.408       .  A
C1260      C1261   1.396       .  A
C1260      H1269   1.083       .  S
C1261      C1262   1.406       .  A
C1261      H1270   1.082       .  S
C1262      C1265   1.485       .  S
C1262      C1263   1.404       .  A
C1263      C1264   1.401       .  A
C1263      H1271   1.083       .  S
C1264      H1272   1.082       .  S
C1265      H1273   1.087       .  S
C1265      C1266   1.344       .  D
C1266      H1274   1.087       .  S
C1267      H1275   1.087       .  S
C1267      C1268   1.347       .  D
C1268      H1276   1.085       .  S
C1277      C1285   1.483       .  S
C1277      C1278   1.404       .  A
C1277      C1282   1.406       .  A
C1278      C1279   1.398       .  A
C1278      H1287   1.084       .  S
C1279      C1280   1.406       .  A
C1279      H1288   1.082       .  S
C1280      C1283   1.484       .  S
C1280      C1281   1.404       .  A
C1281      C1282   1.399       .  A
C1281      H1289   1.084       .  S
C1282      H1290   1.082       .  S
C1283      H1291   1.087       .  S
C1283      C1284   1.345       .  D
C1284      H1292   1.086       .  S
C1285      H1293   1.087       .  S
C1285      C1286   1.348       .  D
C1286      H1294   1.085       .  S
C1295      C1303   1.489       .  S
C1295      C1296   1.405       .  A
C1295      C1300   1.407       .  A
C1296      C1297   1.399       .  A
C1296      H1305   1.083       .  S
C1297      C1298   1.406       .  A
C1297      H1306   1.082       .  S
C1298      C1301   1.488       .  S
C1298      C1299   1.405       .  A
C1299      C1300   1.401       .  A
C1299      H1307   1.083       .  S
C1300      H1308   1.081       .  S
C1301      H1309   1.087       .  S
C1301      C1302   1.348       .  D
C1302      H1310   1.086       .  S
C1303      H1311   1.087       .  S
C1303      C1304   1.349       .  D
C1304      H1312   1.085       .  S
C1313      C1321   1.486       .  S
C1313      C1314   1.402       .  A
C1313      C1318   1.407       .  A
C1314      C1315   1.398   1_455  A
C1314      H1323   1.084       .  S
C1315      C1316   1.410       .  A
C1315      H1324   1.080       .  S
C1316      C1319   1.491       .  S
C1316      C1317   1.404       .  A
C1317      C1318   1.399   1_655  A
C1317      H1325   1.084       .  S
C1318      H1326   1.081       .  S
C1319      H1327   1.087       .  S
C1319      C1320   1.346       .  D
C1320      H1328   1.083       .  S
C1321      H1329   1.087       .  S
C1321      C1322   1.345       .  D
C1322      H1330   1.085       .  S
C1331      C1339   1.484       .  S
C1331      C1332   1.401       .  A
C1331      C1336   1.409       .  A
C1332      C1333   1.399       .  A
C1332      H1341   1.083       .  S
C1333      C1334   1.409       .  A
C1333      H1342   1.083       .  S
C1334      C1337   1.484       .  S
C1334      C1335   1.400       .  A
C1335      C1336   1.399       .  A
C1335      H1343   1.083       .  S
C1336      H1344   1.083       .  S
C1337      H1345   1.086       .  S
C1337      C1338   1.342       .  D
C1338      H1346   1.088       .  S
C1339      H1347   1.087       .  S
C1339      C1340   1.343       .  D
C1340      H1348   1.087       .  S
C1349      C1357   1.488       .  S
C1349      C1350   1.404   1_554  A
C1349      C1354   1.408       .  A
C1350      C1351   1.399       .  A
C1350      H1359   1.084       .  S
C1351      C1352   1.408       .  A
C1351      H1360   1.082       .  S
C1352      C1355   1.486       .  S
C1352      C1353   1.402   1_556  A
C1353      C1354   1.399       .  A
C1353      H1361   1.083       .  S
C1354      H1362   1.081       .  S
C1355      H1363   1.087       .  S
C1355      C1356   1.344       .  D
C1356      H1364   1.086       .  S
C1357      H1365   1.087       .  S
C1357      C1358   1.348       .  D
C1358      H1366   1.085       .  S
C1367      C1375   1.487       .  S
C1367      C1368   1.403       .  A
C1367      C1372   1.407       .  A
C1368      C1369   1.398   1_455  A
C1368      H1377   1.084       .  S
C1369      C1370   1.409       .  A
C1369      H1378   1.080       .  S
C1370      C1373   1.491       .  S
C1370      C1371   1.405       .  A
C1371      C1372   1.399   1_655  A
C1371      H1379   1.084       .  S
C1372      H1380   1.081       .  S
C1373      H1381   1.087       .  S
C1373      C1374   1.347       .  D
C1374      H1382   1.083       .  S
C1375      H1383   1.087       .  S
C1375      C1376   1.346       .  D
C1376      H1384   1.085       .  S
C1385      C1393   1.488       .  S
C1385      C1386   1.402       .  A
C1385      C1390   1.409       .  A
C1386      C1387   1.398       .  A
C1386      H1395   1.083       .  S
C1387      C1388   1.408       .  A
C1387      H1396   1.083       .  S
C1388      C1391   1.489       .  S
C1388      C1389   1.403       .  A
C1389      C1390   1.402       .  A
C1389      H1397   1.083       .  S
C1390      H1398   1.082       .  S
C1391      H1399   1.087       .  S
C1391      C1392   1.343       .  D
C1392      H1400   1.087       .  S
C1393      H1401   1.087       .  S
C1393      C1394   1.347       .  D
C1394      H1402   1.086       .  S
C1403      C1411   1.485       .  S
C1403      C1404   1.403       .  A
C1403      C1408   1.406       .  A
C1404      C1405   1.401       .  A
C1404      H1413   1.083       .  S
C1405      C1406   1.408       .  A
C1405      H1414   1.082       .  S
C1406      C1409   1.485       .  S
C1406      C1407   1.403       .  A
C1407      C1408   1.396       .  A
C1407      H1415   1.083       .  S
C1408      H1416   1.083       .  S
C1409      H1417   1.087       .  S
C1409      C1410   1.348       .  D
C1410      H1418   1.085       .  S
C1411      H1419   1.087       .  S
C1411      C1412   1.343       .  D
C1412      H1420   1.086       .  S
C1421      C1429   1.489       .  S
C1421      C1422   1.402       .  A
C1421      C1426   1.409       .  A
C1422      C1423   1.402       .  A
C1422      H1431   1.083       .  S
C1423      C1424   1.410       .  A
C1423      H1432   1.083       .  S
C1424      C1427   1.490       .  S
C1424      C1425   1.402       .  A
C1425      C1426   1.401       .  A
C1425      H1433   1.083       .  S
C1426      H1434   1.083       .  S
C1427      H1435   1.086       .  S
C1427      C1428   1.343       .  D
C1428      H1436   1.087       .  S
C1429      H1437   1.086       .  S
C1429      C1430   1.344       .  D
C1430      H1438   1.087       .  S
C1439      C1447   1.489       .  S
C1439      C1440   1.403       .  A
C1439      C1444   1.407       .  A
C1440      C1441   1.400       .  A
C1440      H1449   1.083       .  S
C1441      C1442   1.408       .  A
C1441      H1450   1.082       .  S
C1442      C1445   1.489       .  S
C1442      C1443   1.404       .  A
C1443      C1444   1.401       .  A
C1443      H1451   1.083       .  S
C1444      H1452   1.082       .  S
C1445      H1453   1.087       .  S
C1445      C1446   1.348       .  D
C1446      H1454   1.086       .  S
C1447      H1455   1.087       .  S
C1447      C1448   1.345       .  D
C1448      H1456   1.086       .  S
C1457      C1465   1.491       .  S
C1457      C1458   1.403       .  A
C1457      C1462   1.410       .  A
C1458      C1459   1.401       .  A
C1458      H1467   1.084       .  S
C1459      C1460   1.410       .  A
C1459      H1468   1.081       .  S
C1460      C1463   1.488       .  S
C1460      C1461   1.401       .  A
C1461      C1462   1.398       .  A
C1461      H1469   1.084       .  S
C1462      H1470   1.081       .  S
C1463      H1471   1.087       .  S
C1463      C1464   1.343       .  D
C1464      H1472   1.086       .  S
C1465      H1473   1.087       .  S
C1465      C1466   1.345       .  D
C1466      H1474   1.085       .  S
C1475      C1483   1.494       .  S
C1475      C1476   1.403       .  A
C1475      C1480   1.410       .  A
C1476      C1477   1.400       .  A
C1476      H1485   1.084       .  S
C1477      C1478   1.410       .  A
C1477      H1486   1.081       .  S
C1478      C1481   1.496       .  S
C1478      C1479   1.404       .  A
C1479      C1480   1.402       .  A
C1479      H1487   1.084       .  S
C1480      H1488   1.081       .  S
C1481      H1489   1.087       .  S
C1481      C1482   1.347       .  D
C1482      H1490   1.084       .  S
C1483      H1491   1.087       .  S
C1483      C1484   1.347       .  D
C1484      H1492   1.085       .  S
C1493      C1501   1.483       .  S
C1493      C1494   1.403       .  A
C1493      C1498   1.406       .  A
C1494      C1495   1.396       .  A
C1494      H1503   1.084       .  S
C1495      C1496   1.406       .  A
C1495      H1504   1.081       .  S
C1496      C1499   1.485       .  S
C1496      C1497   1.405       .  A
C1497      C1498   1.400       .  A
C1497      H1505   1.083       .  S
C1498      H1506   1.082       .  S
C1499      H1507   1.087       .  S
C1499      C1500   1.347       .  D
C1500      H1508   1.085       .  S
C1501      H1509   1.087       .  S
C1501      C1502   1.348       .  D
C1502      H1510   1.085       .  S
C1511      C1519   1.485       .  S
C1511      C1512   1.404       .  A
C1511      C1516   1.407       .  A
C1512      C1513   1.396       .  A
C1512      H1521   1.083       .  S
C1513      C1514   1.404       .  A
C1513      H1522   1.083       .  S
C1514      C1517   1.483       .  S
C1514      C1515   1.404       .  A
C1515      C1516   1.401       .  A
C1515      H1523   1.083       .  S
C1516      H1524   1.082       .  S
C1517      H1525   1.087       .  S
C1517      C1518   1.346       .  D
C1518      H1526   1.086       .  S
C1519      H1527   1.087       .  S
C1519      C1520   1.348       .  D
C1520      H1528   1.085       .  S
C1529      C1537   1.489       .  S
C1529      C1530   1.404       .  A
C1529      C1534   1.407       .  A
C1530      C1531   1.399       .  A
C1530      H1539   1.083       .  S
C1531      C1532   1.403       .  A
C1531      H1540   1.083       .  S
C1532      C1535   1.492       .  S
C1532      C1533   1.410       .  A
C1533      C1534   1.399       .  A
C1533      H1541   1.080       .  S
C1534      H1542   1.081       .  S
C1535      H1543   1.087       .  S
C1535      C1536   1.346       .  D
C1536      H1544   1.083       .  S
C1537      H1545   1.087       .  S
C1537      C1538   1.347       .  D
C1538      H1546   1.084       .  S
C1547      C1555   1.489       .  S
C1547      C1548   1.401       .  A
C1547      C1552   1.411       .  A
C1548      C1549   1.396       .  A
C1548      H1557   1.083       .  S
C1549      C1550   1.407       .  A
C1549      H1558   1.083       .  S
C1550      C1553   1.489       .  S
C1550      C1551   1.403       .  A
C1551      C1552   1.405       .  A
C1551      H1559   1.083       .  S
C1552      H1560   1.082       .  S
C1553      H1561   1.086       .  S
C1553      C1554   1.343       .  D
C1554      H1562   1.087       .  S
C1555      H1563   1.087       .  S
C1555      C1556   1.344       .  D
C1556      H1564   1.086       .  S
C1565      C1573   1.492       .  S
C1565      C1566   1.404       .  A
C1565      C1570   1.410       .  A
C1566      C1567   1.400       .  A
C1566      H1575   1.083       .  S
C1567      C1568   1.408       .  A
C1567      H1576   1.082       .  S
C1568      C1571   1.489       .  S
C1568      C1569   1.402       .  A
C1569      C1570   1.399       .  A
C1569      H1577   1.083       .  S
C1570      H1578   1.081       .  S
C1571      H1579   1.087       .  S
C1571      C1572   1.345       .  D
C1572      H1580   1.085       .  S
C1573      H1581   1.086       .  S
C1573      C1574   1.346       .  D
C1574      H1582   1.084       .  S
C1583      C1591   1.487       .  S
C1583      C1584   1.403       .  A
C1583      C1588   1.407       .  A
C1584      C1585   1.401       .  A
C1584      H1593   1.084       .  S
C1585      C1586   1.408       .  A
C1585      H1594   1.081       .  S
C1586      C1589   1.487       .  S
C1586      C1587   1.403       .  A
C1587      C1588   1.398       .  A
C1587      H1595   1.084       .  S
C1588      H1596   1.082       .  S
C1589      H1597   1.087       .  S
C1589      C1590   1.347       .  D
C1590      H1598   1.085       .  S
C1591      H1599   1.087       .  S
C1591      C1592   1.344       .  D
C1592      H1600   1.086       .  S
C1601      C1609   1.483   1_554  S
C1601      C1602   1.402       .  A
C1601      C1606   1.406       .  A
C1602      C1603   1.402       .  A
C1602      H1611   1.083       .  S
C1603      C1604   1.409       .  A
C1603      H1612   1.082       .  S
C1604      C1607   1.483       .  S
C1604      C1605   1.402       .  A
C1605      C1606   1.395       .  A
C1605      H1613   1.083       .  S
C1606      H1614   1.083       .  S
C1607      H1615   1.087       .  S
C1607      C1608   1.346       .  D
C1608      H1616   1.085       .  S
C1609      H1617   1.086       .  S
C1609      C1610   1.342       .  D
C1610      H1618   1.087       .  S
C1619      C1627   1.486       .  S
C1619      C1620   1.403       .  A
C1619      C1624   1.407       .  A
C1620      C1621   1.401       .  A
C1620      H1629   1.083       .  S
C1621      C1622   1.409       .  A
C1621      H1630   1.082       .  S
C1622      C1625   1.487       .  S
C1622      C1623   1.402       .  A
C1623      C1624   1.398       .  A
C1623      H1631   1.083       .  S
C1624      H1632   1.083       .  S
C1625      H1633   1.087       .  S
C1625      C1626   1.345       .  D
C1626      H1634   1.086       .  S
C1627      H1635   1.087       .  S
C1627      C1628   1.345       .  D
C1628      H1636   1.086       .  S
C1637      C1645   1.498       .  S
C1637      C1638   1.405       .  A
C1637      C1642   1.410       .  A
C1638      C1639   1.403       .  A
C1638      H1647   1.084       .  S
C1639      C1640   1.410       .  A
C1639      H1648   1.081       .  S
C1640      C1643   1.495       .  S
C1640      C1641   1.403       .  A
C1641      C1642   1.399       .  A
C1641      H1649   1.084       .  S
C1642      H1650   1.080       .  S
C1643      H1651   1.087       .  S
C1643      C1644   1.347       .  D
C1644      H1652   1.085       .  S
C1645      H1653   1.087       .  S
C1645      C1646   1.349       .  D
C1646      H1654   1.084       .  S
C1655      C1663   1.487       .  S
C1655      C1656   1.404       .  A
C1655      C1660   1.406       .  A
C1656      C1657   1.400   1_545  A
C1656      H1665   1.083       .  S
C1657      C1658   1.407       .  A
C1657      H1666   1.081       .  S
C1658      C1661   1.487       .  S
C1658      C1659   1.404       .  A
C1659      C1660   1.399   1_565  A
C1659      H1667   1.083       .  S
C1660      H1668   1.082       .  S
C1661      H1669   1.087       .  S
C1661      C1662   1.349       .  D
C1662      H1670   1.085       .  S
C1663      H1671   1.087       .  S
C1663      C1664   1.345       .  D
C1664      H1672   1.086       .  S
C1673      C1681   1.491       .  S
C1673      C1674   1.404       .  A
C1673      C1678   1.410       .  A
C1674      C1675   1.397       .  A
C1674      H1683   1.084       .  S
C1675      C1676   1.408       .  A
C1675      H1684   1.081       .  S
C1676      C1679   1.488       .  S
C1676      C1677   1.403       .  A
C1677      C1678   1.399       .  A
C1677      H1685   1.083       .  S
C1678      H1686   1.080       .  S
C1679      H1687   1.087       .  S
C1679      C1680   1.345       .  D
C1680      H1688   1.085       .  S
C1681      H1689   1.087       .  S
C1681      C1682   1.347       .  D
C1682      H1690   1.083       .  S
C1691      C1699   1.484       .  S
C1691      C1692   1.401       .  A
C1691      C1696   1.408       .  A
C1692      C1693   1.401       .  A
C1692      H1701   1.083       .  S
C1693      C1694   1.409       .  A
C1693      H1702   1.082       .  S
C1694      C1697   1.484   1_556  S
C1694      C1695   1.400       .  A
C1695      C1696   1.396       .  A
C1695      H1703   1.083       .  S
C1696      H1704   1.083       .  S
C1697      H1705   1.087       .  S
C1697      C1698   1.342       .  D
C1698      H1706   1.086       .  S
C1699      H1707   1.086       .  S
C1699      C1700   1.343       .  D
C1700      H1708   1.087       .  S
C1709      C1717   1.482       .  S
C1709      C1710   1.403       .  A
C1709      C1714   1.405       .  A
C1710      C1711   1.401       .  A
C1710      H1719   1.084       .  S
C1711      C1712   1.407       .  A
C1711      H1720   1.082       .  S
C1712      C1715   1.480       .  S
C1712      C1713   1.402       .  A
C1713      C1714   1.395       .  A
C1713      H1721   1.084       .  S
C1714      H1722   1.083       .  S
C1715      H1723   1.087       .  S
C1715      C1716   1.346       .  D
C1716      H1724   1.086       .  S
C1717      H1725   1.087       .  S
C1717      C1718   1.343       .  D
C1718      H1726   1.087       .  S
C1727      C1735   1.488       .  S
C1727      C1728   1.404       .  A
C1727      C1732   1.406       .  A
C1728      C1729   1.402   1_545  A
C1728      H1737   1.083       .  S
C1729      C1730   1.408       .  A
C1729      H1738   1.081       .  S
C1730      C1733   1.488       .  S
C1730      C1731   1.404       .  A
C1731      C1732   1.398   1_565  A
C1731      H1739   1.083       .  S
C1732      H1740   1.082       .  S
C1733      H1741   1.087       .  S
C1733      C1734   1.349       .  D
C1734      H1742   1.085       .  S
C1735      H1743   1.087       .  S
C1735      C1736   1.345       .  D
C1736      H1744   1.086       .  S
C1745      C1753   1.489       .  S
C1745      C1746   1.402       .  A
C1745      C1750   1.410       .  A
C1746      C1747   1.397       .  A
C1746      H1755   1.084       .  S
C1747      C1748   1.409       .  A
C1747      H1756   1.081       .  S
C1748      C1751   1.490       .  S
C1748      C1749   1.402       .  A
C1749      C1750   1.399       .  A
C1749      H1757   1.083       .  S
C1750      H1758   1.080       .  S
C1751      H1759   1.087       .  S
C1751      C1752   1.345       .  D
C1752      H1760   1.085       .  S
C1753      H1761   1.087       .  S
C1753      C1754   1.345       .  D
C1754      H1762   1.084       .  S
C1763      C1771   1.487       .  S
C1763      C1764   1.404       .  A
C1763      C1768   1.407       .  A
C1764      C1765   1.398   1_565  A
C1764      H1773   1.083       .  S
C1765      C1766   1.407       .  A
C1765      H1774   1.082       .  S
C1766      C1769   1.489       .  S
C1766      C1767   1.405       .  A
C1767      C1768   1.402   1_545  A
C1767      H1775   1.083       .  S
C1768      H1776   1.081       .  S
C1769      H1777   1.087       .  S
C1769      C1770   1.346       .  D
C1770      H1778   1.086       .  S
C1771      H1779   1.087       .  S
C1771      C1772   1.350       .  D
C1772      H1780   1.085       .  S
C1781      C1789   1.482       .  S
C1781      C1782   1.403       .  A
C1781      C1786   1.406       .  A
C1782      C1783   1.396       .  A
C1782      H1791   1.084       .  S
C1783      C1784   1.406       .  A
C1783      H1792   1.082       .  S
C1784      C1787   1.482       .  S
C1784      C1785   1.403       .  A
C1785      C1786   1.398       .  A
C1785      H1793   1.084       .  S
C1786      H1794   1.082       .  S
C1787      H1795   1.087       .  S
C1787      C1788   1.346       .  D
C1788      H1796   1.085       .  S
C1789      H1797   1.087       .  S
C1789      C1790   1.346       .  D
C1790      H1798   1.085       .  S
C1799      C1807   1.492       .  S
C1799      C1800   1.403       .  A
C1799      C1804   1.410       .  A
C1800      C1801   1.399       .  A
C1800      H1809   1.083   1_554  S
C1801      C1802   1.409       .  A
C1801      H1810   1.082   1_554  S
C1802      C1805   1.493       .  S
C1802      C1803   1.404       .  A
C1803      C1804   1.402       .  A
C1803      H1811   1.083       .  S
C1804      H1812   1.081       .  S
C1805      H1813   1.086       .  S
C1805      C1806   1.346       .  D
C1806      H1814   1.085   1_554  S
C1807      H1815   1.087   1_554  S
C1807      C1808   1.346       .  D
C1808      H1816   1.085       .  S
C1817      C1825   1.483       .  S
C1817      C1818   1.401       .  A
C1817      C1822   1.407       .  A
C1818      C1819   1.399       .  A
C1818      H1827   1.084       .  S
C1819      C1820   1.409       .  A
C1819      H1828   1.082       .  S
C1820      C1823   1.485       .  S
C1820      C1821   1.402       .  A
C1821      C1822   1.399       .  A
C1821      H1829   1.084       .  S
C1822      H1830   1.083       .  S
C1823      H1831   1.087       .  S
C1823      C1824   1.345       .  D
C1824      H1832   1.086       .  S
C1825      H1833   1.087       .  S
C1825      C1826   1.342       .  D
C1826      H1834   1.087       .  S
C1835      C1843   1.486       .  S
C1835      C1836   1.405       .  A
C1835      C1840   1.406       .  A
C1836      C1837   1.401       .  A
C1836      H1845   1.083       .  S
C1837      C1838   1.406       .  A
C1837      H1846   1.082       .  S
C1838      C1841   1.483       .  S
C1838      C1839   1.403       .  A
C1839      C1840   1.396       .  A
C1839      H1847   1.083       .  S
C1840      H1848   1.082       .  S
C1841      H1849   1.087       .  S
C1841      C1842   1.348       .  D
C1842      H1850   1.085       .  S
C1843      H1851   1.087       .  S
C1843      C1844   1.346       .  D
C1844      H1852   1.086       .  S
C1853      C1861   1.491       .  S
C1853      C1854   1.403       .  A
C1853      C1858   1.409       .  A
C1854      C1855   1.403   1_545  A
C1854      H1863   1.083       .  S
C1855      C1856   1.408       .  A
C1855      H1864   1.083       .  S
C1856      C1859   1.490   1_556  S
C1856      C1857   1.402   1_566  A
C1857      C1858   1.403   1_554  A
C1857      H1865   1.083       .  S
C1858      H1866   1.083   1_556  S
C1859      H1867   1.086       .  S
C1859      C1860   1.345   1_554  D
C1860      H1868   1.087       .  S
C1861      H1869   1.086       .  S
C1861      C1862   1.345       .  D
C1862      H1870   1.087       .  S
C1871      C1879   1.488       .  S
C1871      C1872   1.405       .  A
C1871      C1876   1.406       .  A
C1872      C1873   1.400       .  A
C1872      H1881   1.083       .  S
C1873      C1874   1.407       .  A
C1873      H1882   1.081       .  S
C1874      C1877   1.490       .  S
C1874      C1875   1.406       .  A
C1875      C1876   1.401       .  A
C1875      H1883   1.083       .  S
C1876      H1884   1.082       .  S
C1877      H1885   1.087       .  S
C1877      C1878   1.350       .  D
C1878      H1886   1.085       .  S
C1879      H1887   1.087       .  S
C1879      C1880   1.349       .  D
C1880      H1888   1.085       .  S
C1889      C1897   1.486       .  S
C1889      C1890   1.402       .  A
C1889      C1894   1.408       .  A
C1890      C1891   1.399       .  A
C1890      H1899   1.083       .  S
C1891      C1892   1.408       .  A
C1891      H1900   1.082       .  S
C1892      C1895   1.485       .  S
C1892      C1893   1.402       .  A
C1893      C1894   1.397       .  A
C1893      H1901   1.084       .  S
C1894      H1902   1.081       .  S
C1895      H1903   1.087       .  S
C1895      C1896   1.345       .  D
C1896      H1904   1.085       .  S
C1897      H1905   1.087       .  S
C1897      C1898   1.344       .  D
C1898      H1906   1.085       .  S
C1907      C1915   1.491       .  S
C1907      C1908   1.404       .  A
C1907      C1912   1.408       .  A
C1908      C1909   1.400       .  A
C1908      H1917   1.084       .  S
C1909      C1910   1.409       .  A
C1909      H1918   1.081       .  S
C1910      C1913   1.492       .  S
C1910      C1911   1.404       .  A
C1911      C1912   1.400       .  A
C1911      H1919   1.084       .  S
C1912      H1920   1.081       .  S
C1913      H1921   1.087       .  S
C1913      C1914   1.347       .  D
C1914      H1922   1.084       .  S
C1915      H1923   1.087       .  S
C1915      C1916   1.348       .  D
C1916      H1924   1.085       .  S
C1925      C1933   1.494       .  S
C1925      C1926   1.404       .  A
C1925      C1930   1.411       .  A
C1926      C1927   1.398       .  A
C1926      H1935   1.083       .  S
C1927      C1928   1.408       .  A
C1927      H1936   1.081       .  S
C1928      C1931   1.492       .  S
C1928      C1929   1.404       .  A
C1929      C1930   1.402       .  A
C1929      H1937   1.083       .  S
C1930      H1938   1.080       .  S
C1931      H1939   1.087       .  S
C1931      C1932   1.347       .  D
C1932      H1940   1.085       .  S
C1933      H1941   1.087       .  S
C1933      C1934   1.348       .  D
C1934      H1942   1.083       .  S
C1943      C1951   1.492       .  S
C1943      C1944   1.404       .  A
C1943      C1948   1.410       .  A
C1944      C1945   1.399       .  A
C1944      H1953   1.084       .  S
C1945      C1946   1.409       .  A
C1945      H1954   1.081       .  S
C1946      C1949   1.492       .  S
C1946      C1947   1.403       .  A
C1947      C1948   1.401       .  A
C1947      H1955   1.084       .  S
C1948      H1956   1.080       .  S
C1949      H1957   1.087       .  S
C1949      C1950   1.346       .  D
C1950      H1958   1.085       .  S
C1951      H1959   1.087       .  S
C1951      C1952   1.347       .  D
C1952      H1960   1.084       .  S
C1961      C1969   1.487       .  S
C1961      C1962   1.403       .  A
C1961      C1966   1.408       .  A
C1962      C1963   1.400       .  A
C1962      H1971   1.083       .  S
C1963      C1964   1.407       .  A
C1963      H1972   1.083       .  S
C1964      C1967   1.485       .  S
C1964      C1965   1.401       .  A
C1965      C1966   1.399       .  A
C1965      H1973   1.083       .  S
C1966      H1974   1.082       .  S
C1967      H1975   1.087       .  S
C1967      C1968   1.341       .  D
C1968      H1976   1.087       .  S
C1969      H1977   1.087       .  S
C1969      C1970   1.347       .  D
C1970      H1978   1.086       .  S
C1979      C1987   1.484   1_554  S
C1979      C1980   1.404       .  A
C1979      C1984   1.406       .  A
C1980      C1981   1.400       .  A
C1980      H1989   1.084       .  S
C1981      C1982   1.407       .  A
C1981      H1990   1.082       .  S
C1982      C1985   1.484       .  S
C1982      C1983   1.403       .  A
C1983      C1984   1.398       .  A
C1983      H1991   1.084       .  S
C1984      H1992   1.082       .  S
C1985      H1993   1.087       .  S
C1985      C1986   1.345       .  D
C1986      H1994   1.086       .  S
C1987      H1995   1.087       .  S
C1987      C1988   1.348       .  D
C1988      H1996   1.086       .  S
C1997      C2005   1.495       .  S
C1997      C1998   1.403       .  A
C1997      C2002   1.411       .  A
C1998      C1999   1.400   1_455  A
C1998      H2007   1.084       .  S
C1999      C2000   1.410       .  A
C1999      H2008   1.081       .  S
C2000      C2003   1.492       .  S
C2000      C2001   1.402       .  A
C2001      C2002   1.400   1_655  A
C2001      H2009   1.084   1_556  S
C2002      H2010   1.080       .  S
C2003      H2011   1.087       .  S
C2003      C2004   1.345       .  D
C2004      H2012   1.085       .  S
C2005      H2013   1.087       .  S
C2005      C2006   1.345       .  D
C2006      H2014   1.084       .  S
C2015      C2023   1.493       .  S
C2015      C2016   1.404       .  A
C2015      C2020   1.410       .  A
C2016      C2017   1.399       .  A
C2016      H2025   1.083       .  S
C2017      C2018   1.409       .  A
C2017      H2026   1.080       .  S
C2018      C2021   1.492       .  S
C2018      C2019   1.403       .  A
C2019      C2020   1.399       .  A
C2019      H2027   1.083   1_556  S
C2020      H2028   1.080       .  S
C2021      H2029   1.087       .  S
C2021      C2022   1.346       .  D
C2022      H2030   1.084       .  S
C2023      H2031   1.087       .  S
C2023      C2024   1.347       .  D
C2024      H2032   1.083       .  S
C2033      C2041   1.486       .  S
C2033      C2034   1.405       .  A
C2033      C2038   1.406       .  A
C2034      C2035   1.397       .  A
C2034      H2043   1.084       .  S
C2035      C2036   1.405       .  A
C2035      H2044   1.082       .  S
C2036      C2039   1.488       .  S
C2036      C2037   1.406       .  A
C2037      C2038   1.402       .  A
C2037      H2045   1.083       .  S
C2038      H2046   1.082       .  S
C2039      H2047   1.087       .  S
C2039      C2040   1.350       .  D
C2040      H2048   1.085       .  S
C2041      H2049   1.087       .  S
C2041      C2042   1.351       .  D
C2042      H2050   1.085       .  S
C2051      C2059   1.491       .  S
C2051      C2052   1.403       .  A
C2051      C2056   1.409       .  A
C2052      C2053   1.399   1_455  A
C2052      H2061   1.084       .  S
C2053      C2054   1.408       .  A
C2053      H2062   1.081       .  S
C2054      C2057   1.492       .  S
C2054      C2055   1.404       .  A
C2055      C2056   1.401   1_655  A
C2055      H2063   1.083       .  S
C2056      H2064   1.081       .  S
C2057      H2065   1.087       .  S
C2057      C2058   1.347       .  D
C2058      H2066   1.085       .  S
C2059      H2067   1.087       .  S
C2059      C2060   1.347       .  D
C2060      H2068   1.085       .  S
C2069      C2077   1.486       .  S
C2069      C2070   1.402       .  A
C2069      C2074   1.408       .  A
C2070      C2071   1.398       .  A
C2070      H2079   1.083       .  S
C2071      C2072   1.409       .  A
C2071      H2080   1.081       .  S
C2072      C2075   1.487       .  S
C2072      C2073   1.402       .  A
C2073      C2074   1.397       .  A
C2073      H2081   1.084       .  S
C2074      H2082   1.081       .  S
C2075      H2083   1.087       .  S
C2075      C2076   1.345       .  D
C2076      H2084   1.084       .  S
C2077      H2085   1.087       .  S
C2077      C2078   1.344       .  D
C2078      H2086   1.085       .  S
C2087      C2095   1.482       .  S
C2087      C2088   1.401       .  A
C2087      C2092   1.407       .  A
C2088      C2089   1.397       .  A
C2088      H2097   1.083       .  S
C2089      C2090   1.408       .  A
C2089      H2098   1.082       .  S
C2090      C2093   1.483       .  S
C2090      C2091   1.402       .  A
C2091      C2092   1.398       .  A
C2091      H2099   1.083       .  S
C2092      H2100   1.083       .  S
C2093      H2101   1.087       .  S
C2093      C2094   1.346       .  D
C2094      H2102   1.086       .  S
C2095      H2103   1.087       .  S
C2095      C2096   1.341       .  D
C2096      H2104   1.087       .  S
C2105      C2113   1.487       .  S
C2105      C2106   1.405       .  A
C2105      C2110   1.406       .  A
C2106      C2107   1.401       .  A
C2106      H2115   1.083       .  S
C2107      C2108   1.406       .  A
C2107      H2116   1.082       .  S
C2108      C2111   1.484       .  S
C2108      C2109   1.404       .  A
C2109      C2110   1.397       .  A
C2109      H2117   1.083       .  S
C2110      H2118   1.082       .  S
C2111      H2119   1.087       .  S
C2111      C2112   1.349       .  D
C2112      H2120   1.085       .  S
C2113      H2121   1.087       .  S
C2113      C2114   1.347       .  D
C2114      H2122   1.086       .  S
C2123      C2131   1.486       .  S
C2123      C2124   1.405       .  A
C2123      C2128   1.407       .  A
C2124      C2125   1.395       .  A
C2124      H2133   1.084       .  S
C2125      C2126   1.404       .  A
C2125      H2134   1.082       .  S
C2126      C2129   1.485       .  S
C2126      C2127   1.406       .  A
C2127      C2128   1.402       .  A
C2127      H2135   1.083       .  S
C2128      H2136   1.081       .  S
C2129      H2137   1.087       .  S
C2129      C2130   1.348       .  D
C2130      H2138   1.085       .  S
C2131      H2139   1.087       .  S
C2131      C2132   1.350       .  D
C2132      H2140   1.084       .  S
C2141      C2149   1.494       .  S
C2141      C2142   1.404       .  A
C2141      C2146   1.409       .  A
C2142      C2143   1.399       .  A
C2142      H2151   1.084       .  S
C2143      C2144   1.409       .  A
C2143      H2152   1.079       .  S
C2144      C2147   1.494       .  S
C2144      C2145   1.404       .  A
C2145      C2146   1.400       .  A
C2145      H2153   1.084       .  S
C2146      H2154   1.080       .  S
C2147      H2155   1.087       .  S
C2147      C2148   1.348       .  D
C2148      H2156   1.082       .  S
C2149      H2157   1.087       .  S
C2149      C2150   1.348       .  D
C2150      H2158   1.083       .  S
C2159      C2167   1.489       .  S
C2159      C2160   1.403       .  A
C2159      C2164   1.409       .  A
C2160      C2161   1.399   1_455  A
C2160      H2169   1.084       .  S
C2161      C2162   1.409       .  A
C2161      H2170   1.081       .  S
C2162      C2165   1.489       .  S
C2162      C2163   1.402   1_655  A
C2163      C2164   1.398       .  A
C2163      H2171   1.084   1_455  S
C2164      H2172   1.080       .  S
C2165      H2173   1.087       .  S
C2165      C2166   1.345       .  D
C2166      H2174   1.085       .  S
C2167      H2175   1.087       .  S
C2167      C2168   1.346       .  D
C2168      H2176   1.084       .  S
C2177      C2185   1.488       .  S
C2177      C2178   1.402       .  A
C2177      C2182   1.409       .  A
C2178      C2179   1.400   1_545  A
C2178      H2187   1.083       .  S
C2179      C2180   1.408       .  A
C2179      H2188   1.082       .  S
C2180      C2183   1.486       .  S
C2180      C2181   1.402       .  A
C2181      C2182   1.399   1_565  A
C2181      H2189   1.083       .  S
C2182      H2190   1.082       .  S
C2183      H2191   1.087       .  S
C2183      C2184   1.345       .  D
C2184      H2192   1.086       .  S
C2185      H2193   1.087       .  S
C2185      C2186   1.343       .  D
C2186      H2194   1.086       .  S
C2195      C2203   1.495       .  S
C2195      C2196   1.404       .  A
C2195      C2200   1.410       .  A
C2196      C2197   1.400       .  A
C2196      H2205   1.084       .  S
C2197      C2198   1.409       .  A
C2197      H2206   1.080       .  S
C2198      C2201   1.494       .  S
C2198      C2199   1.404       .  A
C2199      C2200   1.400       .  A
C2199      H2207   1.084       .  S
C2200      H2208   1.079       .  S
C2201      H2209   1.087       .  S
C2201      C2202   1.348       .  D
C2202      H2210   1.083       .  S
C2203      H2211   1.087       .  S
C2203      C2204   1.347       .  D
C2204      H2212   1.083       .  S
C2213      C2221   1.494       .  S
C2213      C2214   1.406       .  A
C2213      C2218   1.408       .  A
C2214      C2215   1.403   1_455  A
C2214      H2223   1.083       .  S
C2215      C2216   1.408       .  A
C2215      H2224   1.081       .  S
C2216      C2219   1.492       .  S
C2216      C2217   1.404       .  A
C2217      C2218   1.400   1_655  A
C2217      H2225   1.084       .  S
C2218      H2226   1.081       .  S
C2219      H2227   1.087       .  S
C2219      C2220   1.349       .  D
C2220      H2228   1.085       .  S
C2221      H2229   1.087       .  S
C2221      C2222   1.350       .  D
C2222      H2230   1.084       .  S
C2231      C2239   1.484       .  S
C2231      C2232   1.403       .  A
C2231      C2236   1.406       .  A
C2232      C2233   1.398       .  A
C2232      H2241   1.083       .  S
C2233      C2234   1.407       .  A
C2233      H2242   1.082       .  S
C2234      C2237   1.485       .  S
C2234      C2235   1.403       .  A
C2235      C2236   1.398       .  A
C2235      H2243   1.083       .  S
C2236      H2244   1.082       .  S
C2237      H2245   1.087       .  S
C2237      C2238   1.346       .  D
C2238      H2246   1.085       .  S
C2239      H2247   1.087       .  S
C2239      C2240   1.345       .  D
C2240      H2248   1.086       .  S
C2249      C2257   1.486       .  S
C2249      C2250   1.404       .  A
C2249      C2254   1.408       .  A
C2250      C2251   1.397       .  A
C2250      H2259   1.083       .  S
C2251      C2252   1.406       .  A
C2251      H2260   1.082       .  S
C2252      C2255   1.485       .  S
C2252      C2253   1.403       .  A
C2253      C2254   1.401       .  A
C2253      H2261   1.083       .  S
C2254      H2262   1.081       .  S
C2255      H2263   1.087       .  S
C2255      C2256   1.344       .  D
C2256      H2264   1.087       .  S
C2257      H2265   1.087       .  S
C2257      C2258   1.349       .  D
C2258      H2266   1.085       .  S
C2267      C2275   1.487       .  S
C2267      C2268   1.404       .  A
C2267      C2272   1.407       .  A
C2268      C2269   1.401   1_565  A
C2268      H2277   1.083       .  S
C2269      C2270   1.407       .  A
C2269      H2278   1.083       .  S
C2270      C2273   1.485       .  S
C2270      C2271   1.402       .  A
C2271      C2272   1.398   1_545  A
C2271      H2279   1.083       .  S
C2272      H2280   1.082       .  S
C2273      H2281   1.087       .  S
C2273      C2274   1.346   1_554  D
C2274      H2282   1.086       .  S
C2275      H2283   1.087       .  S
C2275      C2276   1.345       .  D
C2276      H2284   1.086       .  S
C2285      C2293   1.491       .  S
C2285      C2286   1.402       .  A
C2285      C2290   1.410       .  A
C2286      C2287   1.399       .  A
C2286      H2295   1.084       .  S
C2287      C2288   1.410       .  A
C2287      H2296   1.081       .  S
C2288      C2291   1.491       .  S
C2288      C2289   1.402       .  A
C2289      C2290   1.401       .  A
C2289      H2297   1.084       .  S
C2290      H2298   1.081       .  S
C2291      H2299   1.087       .  S
C2291      C2292   1.344       .  D
C2292      H2300   1.086       .  S
C2293      H2301   1.087       .  S
C2293      C2294   1.344       .  D
C2294      H2302   1.086       .  S
C2303      C2311   1.491       .  S
C2303      C2304   1.403       .  A
C2303      C2308   1.409       .  A
C2304      C2305   1.399       .  A
C2304      H2313   1.084       .  S
C2305      C2306   1.409       .  A
C2305      H2314   1.081       .  S
C2306      C2309   1.492       .  S
C2306      C2307   1.403       .  A
C2307      C2308   1.401       .  A
C2307      H2315   1.083       .  S
C2308      H2316   1.081       .  S
C2309      H2317   1.087       .  S
C2309      C2310   1.346       .  D
C2310      H2318   1.085       .  S
C2311      H2319   1.087       .  S
C2311      C2312   1.347       .  D
C2312      H2320   1.084       .  S
C2321      C2329   1.490       .  S
C2321      C2322   1.405       .  A
C2321      C2326   1.406       .  A
C2322      C2323   1.403   1_565  A
C2322      H2331   1.083       .  S
C2323      C2324   1.409       .  A
C2323      H2332   1.081       .  S
C2324      C2327   1.490       .  S
C2324      C2325   1.404       .  A
C2325      C2326   1.398   1_545  A
C2325      H2333   1.083       .  S
C2326      H2334   1.082       .  S
C2327      H2335   1.087       .  S
C2327      C2328   1.349       .  D
C2328      H2336   1.085       .  S
C2329      H2337   1.087       .  S
C2329      C2330   1.346       .  D
C2330      H2338   1.086       .  S
C2339      C2347   1.489       .  S
C2339      C2340   1.402       .  A
C2339      C2344   1.409       .  A
C2340      C2341   1.401       .  A
C2340      H2349   1.083       .  S
C2341      C2342   1.409       .  A
C2341      H2350   1.082       .  S
C2342      C2345   1.489       .  S
C2342      C2343   1.402       .  A
C2343      C2344   1.400       .  A
C2343      H2351   1.083       .  S
C2344      H2352   1.082       .  S
C2345      H2353   1.087       .  S
C2345      C2346   1.345       .  D
C2346      H2354   1.086       .  S
C2347      H2355   1.086       .  S
C2347      C2348   1.344       .  D
C2348      H2356   1.087       .  S
C2357      C2365   1.493       .  S
C2357      C2358   1.403       .  A
C2357      C2362   1.410       .  A
C2358      C2359   1.400       .  A
C2358      H2367   1.084       .  S
C2359      C2360   1.410       .  A
C2359      H2368   1.080       .  S
C2360      C2363   1.492       .  S
C2360      C2361   1.403       .  A
C2361      C2362   1.399       .  A
C2361      H2369   1.084       .  S
C2362      H2370   1.081       .  S
C2363      H2371   1.087       .  S
C2363      C2364   1.347       .  D
C2364      H2372   1.084       .  S
C2365      H2373   1.086       .  S
C2365      C2366   1.347       .  D
C2366      H2374   1.083       .  S
C2375      C2383   1.489       .  S
C2375      C2376   1.404       .  A
C2375      C2380   1.408       .  A
C2376      C2377   1.400       .  A
C2376      H2385   1.083       .  S
C2377      C2378   1.408       .  A
C2377      H2386   1.081       .  S
C2378      C2381   1.487       .  S
C2378      C2379   1.402       .  A
C2379      C2380   1.397       .  A
C2379      H2387   1.083       .  S
C2380      H2388   1.081       .  S
C2381      H2389   1.087       .  S
C2381      C2382   1.346       .  D
C2382      H2390   1.084       .  S
C2383      H2391   1.087       .  S
C2383      C2384   1.347       .  D
C2384      H2392   1.084       .  S
C2393      C2401   1.489   1_556  S
C2393      C2394   1.404       .  A
C2393      C2398   1.408       .  A
C2394      C2395   1.397       .  A
C2394      H2403   1.084       .  S
C2395      C2396   1.406       .  A
C2395      H2404   1.082       .  S
C2396      C2399   1.490       .  S
C2396      C2397   1.406       .  A
C2397      C2398   1.403       .  A
C2397      H2405   1.083       .  S
C2398      H2406   1.081       .  S
C2399      H2407   1.087       .  S
C2399      C2400   1.348       .  D
C2400      H2408   1.086       .  S
C2401      H2409   1.087       .  S
C2401      C2402   1.349       .  D
C2402      H2410   1.085       .  S
C2411      C2419   1.488       .  S
C2411      C2412   1.403       .  A
C2411      C2416   1.410       .  A
C2412      C2413   1.397       .  A
C2412      H2421   1.084       .  S
C2413      C2414   1.406       .  A
C2413      H2422   1.083       .  S
C2414      C2417   1.485       .  S
C2414      C2415   1.402       .  A
C2415      C2416   1.401       .  A
C2415      H2423   1.083       .  S
C2416      H2424   1.081       .  S
C2417      H2425   1.087       .  S
C2417      C2418   1.341       .  D
C2418      H2426   1.087       .  S
C2419      H2427   1.087       .  S
C2419      C2420   1.347       .  D
C2420      H2428   1.084       .  S
C2429      C2437   1.492       .  S
C2429      C2430   1.404   1_545  A
C2429      C2434   1.408   1_545  A
C2430      C2431   1.403       .  A
C2430      H2439   1.083   1_565  S
C2431      C2432   1.409       .  A
C2431      H2440   1.082       .  S
C2432      C2435   1.490       .  S
C2432      C2433   1.403       .  A
C2433      C2434   1.399       .  A
C2433      H2441   1.083       .  S
C2434      H2442   1.082   1_565  S
C2435      H2443   1.087       .  S
C2435      C2436   1.348       .  D
C2436      H2444   1.085       .  S
C2437      H2445   1.087       .  S
C2437      C2438   1.346       .  D
C2438      H2446   1.086       .  S
C2447      C2455   1.485       .  S
C2447      C2448   1.401       .  A
C2447      C2452   1.408       .  A
C2448      C2449   1.398       .  A
C2448      H2457   1.083       .  S
C2449      C2450   1.408       .  A
C2449      H2458   1.082       .  S
C2450      C2453   1.483       .  S
C2450      C2451   1.401       .  A
C2451      C2452   1.398       .  A
C2451      H2459   1.083       .  S
C2452      H2460   1.082       .  S
C2453      H2461   1.087       .  S
C2453      C2454   1.344       .  D
C2454      H2462   1.086       .  S
C2455      H2463   1.087       .  S
C2455      C2456   1.342       .  D
C2456      H2464   1.086       .  S
