geometry optimzed in LAMMPS
_audit_creation_date              2020-11-30 
_audit_creation_method            'lammps2cif' 
_symmetry_space_group_name_H-M    'P1' 
_symmetry_Int_Tables_number       1 
_symmetry_cell_setting            triclinic 
loop_ 
_symmetry_equiv_pos_as_xyz 
  x,y,z 
_cell_length_a                    50.72641855 
_cell_length_b                    49.8629489046317 
_cell_length_c                    29.49122978816081 
_cell_angle_alpha                 89.85190329373312 
_cell_angle_beta                  90.24573060823529 
_cell_angle_gamma                 121.15138095237207 
loop_ 
_atom_site_label 
_atom_site_type_symbol 
_atom_site_fract_x 
_atom_site_fract_y 
_atom_site_fract_z 
_atom_site_charge 
Zr1        Zr  0.61089805  0.42779021  0.51771667     2.17500
O2          O  0.65804911  0.46464212  0.55775504    -0.51900
O3          O  0.60359706  0.37786835  0.54373944    -0.75100
O4          O  0.59763240  0.42430752  0.59828473    -0.81900
O5          O  0.64622523  0.41968219  0.41022774    -0.83600
O6          O  0.55947677  0.43538992  0.60320256    -0.79300
O7          O  0.65416649  0.42513920  0.48619156    -0.90900
O8          O  0.55602139  0.33966560  0.52020978    -0.76900
O9          O  0.55690319  0.40002955  0.53100223    -0.86400
O10         O  0.58731033  0.39014592  0.45870377    -0.86100
O11         O  0.59649100  0.46714798  0.51577862    -0.72800
O12         O  0.62397923  0.45855422  0.44908893    -0.84900
Zr13       Zr  0.52976405  0.43076060  0.40243410     2.26400
Zr14       Zr  0.54209602  0.43813908  0.52888945     2.06300
Zr15       Zr  0.59960235  0.41990026  0.39131960     2.10000
Zr16       Zr  0.53348552  0.36270783  0.47216003     1.78800
O17         O  0.64101954  0.45172851  0.33841626    -0.93700
O18         O  0.49545685  0.33387622  0.53096829    -0.41600
O19         O  0.54495212  0.39202778  0.40297930    -0.78200
O20         O  0.51645267  0.39961062  0.47061041    -0.96900
O21         O  0.55382738  0.46837434  0.46116814    -0.90200
O22         O  0.58385539  0.45731738  0.38870721    -0.93000
C23         C  0.58168524  0.34904819  0.54102398     1.00700
C24         C  0.66173651  0.42162666  0.44595845     1.13700
C25         C  0.57823857  0.42840931  0.62061760     1.04400
O26         O  0.50200233  0.41101186  0.58551930    -0.95200
O27         O  0.49338983  0.43186257  0.50878665    -0.90900
O28         O  0.50235602  0.45404900  0.44012948    -0.84100
C29         C  0.49065556  0.44938818  0.48026713     1.11100
O30         O  0.65341516  0.53471475  0.48511803    -0.97200
Zr31       Zr  0.60711009  0.49594544  0.44504218     1.88900
O32         O  0.54218975  0.47635394  0.35724253    -0.73800
O33         O  0.55109662  0.48711747  0.56138274    -0.53100
O34         O  0.59892885  0.53456678  0.48245255    -0.97700
O35         O  0.65152941  0.52358908  0.39519201    -0.55000
O36         O  0.58870981  0.51594220  0.38170977    -0.74300
C37         C  0.56490578  0.50472819  0.35500916     0.98000
O38         O  0.47704627  0.39677128  0.37604456    -0.63100
O39         O  0.59011686  0.37112955  0.35753958    -0.57900
O40         O  0.53584139  0.42191743  0.32254091    -0.94600
O41         O  0.57865634  0.41791181  0.31789969    -0.93000
O42         O  0.53361142  0.32480728  0.42039450    -0.93400
O43         O  0.48243637  0.32463314  0.44348552    -0.92200
C44         C  0.55628560  0.41927163  0.30055135     1.16900
H45         H  0.59507425  0.37611619  0.45687132     0.32800
H46         H  0.49438338  0.38803628  0.47470173     0.43700
H47         H  0.58931493  0.46743435  0.35960460     0.37200
H48         H  0.60676629  0.48174317  0.54032191     0.33700
H49         H  0.49420751  0.31340760  0.53302588     0.25500
H50         H  0.54749306  0.49799701  0.53619293     0.31400
H51         H  0.58058754  0.53274745  0.46740738     0.37300
H52         H  0.54978341  0.32112432  0.43214966     0.31800
H53         H  0.56956053  0.36180787  0.34308240     0.30600
H54         H  0.63711901  0.46830326  0.32820186     0.32300
H55         H  0.64281288  0.51994725  0.36417298     0.31300
H56         H  0.47645361  0.33707591  0.42456447     0.35300
H57         H  0.47681887  0.37834300  0.36312781     0.28000
H58         H  0.66134337  0.45163086  0.57976658     0.32300
H59         H  0.65802837  0.55531115  0.47334477     0.35100
H60         H  0.60469655  0.37781781  0.33183925     0.27700
H61         H  0.46469523  0.38879118  0.40410877     0.40600
H62         H  0.49031694  0.38897220  0.57507751     0.30600
H63         H  0.50561309  0.34470409  0.55957864     0.38300
H64         H  0.66180640  0.51128164  0.39659329     0.30100
H65         H  0.57353259  0.49983193  0.56720610     0.30200
H66         H  0.65241841  0.47734849  0.57656008     0.30400
Zr67       Zr  0.59927803  0.42028516  0.00664286     2.17500
O68         O  0.64947032  0.45709787  0.03931679    -0.51900
O69         O  0.59148021  0.37173280  0.03860719    -0.75100
O70         O  0.59177144  0.42371546  0.08757161    -0.81900
O71         O  0.62912167  0.40560159  0.89849185    -0.83600
O72         O  0.54468855  0.41859768  0.09296308    -0.79300
O73         O  0.64025734  0.41547067  0.97319426    -0.90900
O74         O  0.54316858  0.33277520  0.01947141    -0.76900
O75         O  0.54617893  0.39407228  0.02518167    -0.86400
O76         O  0.57294912  0.38035819  0.95114377    -0.86100
O77         O  0.58668235  0.46072850  0.00481134    -0.72800
O78         O  0.61019904  0.44790326  0.93560239    -0.84900
Zr79       Zr  0.51490085  0.42213370  0.89746540     2.26400
Zr80       Zr  0.53292883  0.43339011  0.02212042     2.06300
Zr81       Zr  0.58260106  0.40728445  0.88106755     2.10000
Zr82       Zr  0.51988349  0.35474413  0.97000251     1.78800
O83         O  0.61461584  0.44089218  0.81958398    -0.93700
O84         O  0.48169183  0.33079692  0.03004471    -0.41600
O85         O  0.52888477  0.38223141  0.89971567    -0.78200
O86         O  0.50408348  0.39277278  0.96721852    -0.96900
O87         O  0.54232657  0.46147769  0.95275621    -0.90200
O88         O  0.56853946  0.44627879  0.87819515    -0.93000
C89         C  0.56951793  0.34292784  0.03873409     1.00700
C90         C  0.64616770  0.40962516  0.93333019     1.13700
C91         C  0.56839915  0.41979135  0.11005236     1.04400
O92         O  0.50176695  0.42921390  0.08766353    -0.95200
O93         O  0.48226473  0.42320819  0.00684152    -0.90900
O94         O  0.48757731  0.44470946  0.93835174    -0.84100
C95         C  0.47721701  0.43971829  0.97944855     1.11100
O96         O  0.64262203  0.52664892  0.96777622    -0.97200
Zr97       Zr  0.59497891  0.48649489  0.93202912     1.88900
O98         O  0.52741380  0.46781708  0.85135352    -0.73800
O99         O  0.55515091  0.48797937  0.04453109    -0.53100
O100        O  0.58929121  0.52750505  0.96688246    -0.97700
O101        O  0.63747308  0.51128899  0.87835225    -0.55000
O102        O  0.57637913  0.50550312  0.86904428    -0.74300
C103        C  0.55149296  0.49502530  0.84519697     0.98000
O104        O  0.46193956  0.38788947  0.87249916    -0.63100
O105        O  0.58153283  0.36574382  0.83631368    -0.57900
O106        O  0.52177861  0.41452436  0.81772494    -0.94600
O107        O  0.54022755  0.38307824  0.82827645    -0.93000
O108        O  0.51783706  0.31337061  0.92365346    -0.93400
O109        O  0.46927887  0.31507735  0.94190254    -0.92200
C110        C  0.53436456  0.39977001  0.80237190     1.16900
H111        H  0.58012947  0.36580460  0.95007098     0.32800
H112        H  0.48214771  0.38118192  0.97258379     0.43700
H113        H  0.57299517  0.45523093  0.84817953     0.37200
H114        H  0.59835098  0.47604038  0.02801939     0.33700
H115        H  0.48440757  0.31391086  0.04248830     0.25500
H116        H  0.53837061  0.49236091  0.04010288     0.31400
H117        H  0.56945390  0.52414035  0.95526674     0.37300
H118        H  0.53224357  0.32450442  0.89840906     0.31800
H119        H  0.60001472  0.37640520  0.81682421     0.30600
H120        H  0.63594192  0.45067283  0.83128771     0.32300
H121        H  0.62796254  0.50315170  0.84825645     0.31300
H122        H  0.46574692  0.32494255  0.91524140     0.35300
H123        H  0.45968841  0.39880670  0.84603837     0.28000
H124        H  0.65106115  0.44654646  0.06675509     0.32300
H125        H  0.64819878  0.54645988  0.95200927     0.35100
H126        H  0.58574164  0.35328951  0.85813501     0.27700
H127        H  0.46164474  0.36945769  0.85944248     0.40600
H128        H  0.50094260  0.44862556  0.08804592     0.30600
H129        H  0.48922012  0.34677033  0.05433462     0.38300
H130        H  0.64979105  0.50142546  0.88426935     0.30100
H131        H  0.55782595  0.48808652  0.07782166     0.30200
H132        H  0.64745224  0.47455387  0.05098653     0.30400
Zr133      Zr  0.40054357  0.58020726  0.27050300     2.17500
O134        O  0.35303036  0.54140858  0.30755996    -0.51900
O135        O  0.40597305  0.62817853  0.30177371    -0.75100
O136        O  0.41194857  0.58103521  0.35099669    -0.81900
O137        O  0.36581582  0.59006845  0.16234305    -0.83600
O138        O  0.45551797  0.57875077  0.35472323    -0.79300
O139        O  0.35655017  0.58091585  0.23758840    -0.90900
O140        O  0.45332100  0.66861074  0.28188997    -0.76900
O141        O  0.45428675  0.60887381  0.28633614    -0.86400
O142        O  0.42396292  0.62035290  0.21500844    -0.86100
O143        O  0.41649606  0.54212488  0.26579421    -0.72800
O144        O  0.38972271  0.55262995  0.19951794    -0.84900
Zr145      Zr  0.48574122  0.58531270  0.15564186     2.26400
Zr146      Zr  0.47065207  0.57206137  0.28076786     2.06300
Zr147      Zr  0.41424124  0.59367752  0.14517242     2.10000
Zr148      Zr  0.47744806  0.64884681  0.23103924     1.78800
O149        O  0.37404957  0.56038097  0.09121725    -0.93700
O150        O  0.51462665  0.67455621  0.29225035    -0.41600
O151        O  0.46868166  0.62267670  0.15945305    -0.78200
O152        O  0.49617918  0.61354772  0.22598369    -0.96900
O153        O  0.46146496  0.54482640  0.21064727    -0.90200
O154        O  0.43178592  0.55779102  0.13915160    -0.93000
C155        C  0.42721756  0.65735789  0.30200853     1.00700
C156        C  0.34906852  0.58501848  0.19746350     1.13700
C157        C  0.43404735  0.58125864  0.37273236     1.04400
O158        O  0.50740037  0.58237743  0.34158720    -0.95200
O159        O  0.52249590  0.58704747  0.26343618    -0.90900
O160        O  0.51752711  0.56662599  0.19443997    -0.84100
C161        C  0.52847235  0.57171756  0.23536512     1.11100
O162        O  0.36120136  0.47441715  0.22618669    -0.97200
Zr163      Zr  0.40821447  0.51686371  0.19247667     1.88900
O164        O  0.47482042  0.54119161  0.10779489    -0.73800
O165        O  0.45620457  0.51878237  0.30080315    -0.53100
O166        O  0.41660326  0.47737848  0.22693049    -0.97700
O167        O  0.36558185  0.49131306  0.13863351    -0.55000
O168        O  0.42793406  0.50046736  0.12786303    -0.74300
C169        C  0.45215645  0.51307489  0.10240639     0.98000
O170        O  0.53815722  0.62012670  0.12915985    -0.63100
O171        O  0.42020406  0.64159066  0.11296549    -0.57900
O172        O  0.48035781  0.59688100  0.07638850    -0.94600
O173        O  0.43748774  0.60074354  0.07284060    -0.93000
O174        O  0.47442083  0.68797672  0.18543604    -0.93400
O175        O  0.52829004  0.68890616  0.20459438    -0.92200
C176        C  0.45987201  0.59990624  0.05480281     1.16900
H177        H  0.41539630  0.63372140  0.21465602     0.32800
H178        H  0.51816976  0.62643811  0.23033308     0.43700
H179        H  0.42718861  0.54913395  0.10893625     0.37200
H180        H  0.40622596  0.52643957  0.28906680     0.33700
H181        H  0.50208194  0.67111309  0.31969394     0.25500
H182        H  0.44602667  0.51503622  0.33065288     0.31400
H183        H  0.42530572  0.47064718  0.20257515     0.37300
H184        H  0.48042964  0.68550539  0.15453476     0.31800
H185        H  0.40177662  0.63437723  0.09351248     0.30600
H186        H  0.37555300  0.57469554  0.06666381     0.32300
H187        H  0.37511424  0.49808136  0.10831024     0.31300
H188        H  0.53411790  0.67792315  0.18253344     0.35300
H189        H  0.53743003  0.63723109  0.11325302     0.28000
H190        H  0.34801147  0.55370750  0.32830515     0.32300
H191        H  0.35688977  0.45518958  0.20991746     0.35100
H192        H  0.41698204  0.65237857  0.13854804     0.27700
H193        H  0.55019719  0.63003881  0.15707030     0.40600
H194        H  0.51722867  0.60507570  0.34797607     0.30600
H195        H  0.52371066  0.66134047  0.29715404     0.38300
H196        H  0.35391341  0.50205119  0.14256903     0.30100
H197        H  0.47597592  0.52004842  0.30743685     0.30200
H198        H  0.35899844  0.52953003  0.32778754     0.30400
Zr199      Zr  0.41333773  0.59440467  0.75925800     2.17500
O200        O  0.36516018  0.55773990  0.79690636    -0.51900
O201        O  0.41705814  0.64215340  0.78729498    -0.75100
O202        O  0.42334538  0.58992884  0.83963195    -0.81900
O203        O  0.37817166  0.60113707  0.64816233    -0.83600
O204        O  0.47391793  0.60634098  0.84088677    -0.79300
O205        O  0.36885970  0.59244870  0.72354135    -0.90900
O206        O  0.46376847  0.68333121  0.76621782    -0.76900
O207        O  0.46678840  0.62384341  0.77660007    -0.86400
O208        O  0.43721225  0.63425188  0.70302861    -0.86100
O209        O  0.42934332  0.55650609  0.75629661    -0.72800
O210        O  0.40328946  0.56710138  0.68835596    -0.84900
Zr211      Zr  0.49973044  0.59959896  0.64828750     2.26400
Zr212      Zr  0.48343846  0.58705750  0.77289795     2.06300
Zr213      Zr  0.42820695  0.60768625  0.63296593     2.10000
Zr214      Zr  0.49057535  0.66342640  0.72120170     1.78800
O215        O  0.39842969  0.57321750  0.57047978    -0.93700
O216        O  0.52617098  0.68795523  0.78450136    -0.41600
O217        O  0.48224781  0.63659018  0.65059400    -0.78200
O218        O  0.51011091  0.62835057  0.71824572    -0.96900
O219        O  0.47436931  0.55960595  0.70333183    -0.90200
O220        O  0.44580434  0.57174640  0.62923986    -0.93000
C221        C  0.43722016  0.67158731  0.78515787     1.00700
C222        C  0.36122894  0.59585165  0.68314463     1.13700
C223        C  0.44870625  0.59845422  0.86087975     1.04400
O224        O  0.51553338  0.59099055  0.83732853    -0.95200
O225        O  0.53385972  0.59736566  0.75373413    -0.90900
O226        O  0.52580885  0.57483537  0.68606837    -0.84100
C227        C  0.53647219  0.57903682  0.72686983     1.11100
O228        O  0.37486558  0.48757198  0.71594938    -0.97200
Zr229      Zr  0.42155021  0.53120885  0.68325541     1.88900
O230        O  0.48988027  0.55575297  0.60121738    -0.73800
O231        O  0.46369622  0.53387977  0.80034938    -0.53100
O232        O  0.42972397  0.49169713  0.71822518    -0.97700
O233        O  0.37775788  0.50624780  0.63133273    -0.55000
O234        O  0.44249907  0.51527508  0.61984279    -0.74300
C235        C  0.46727657  0.52767192  0.59554945     0.98000
O236        O  0.55270457  0.63581185  0.62547264    -0.63100
O237        O  0.42343510  0.64887616  0.59626317    -0.57900
O238        O  0.49239256  0.60751585  0.56917043    -0.94600
O239        O  0.46858221  0.63419305  0.57815188    -0.93000
O240        O  0.49185384  0.70477951  0.67539198    -0.93400
O241        O  0.54101361  0.70489735  0.69563204    -0.92200
C242        C  0.47677628  0.61901791  0.55326163     1.16900
H243        H  0.42851246  0.64744828  0.70124579     0.32800
H244        H  0.53204852  0.64069197  0.72366548     0.43700
H245        H  0.44167960  0.56304004  0.59908897     0.37200
H246        H  0.41855841  0.54087211  0.77946093     0.33700
H247        H  0.51289242  0.68509204  0.81077961     0.25500
H248        H  0.48182485  0.53136162  0.80108546     0.31400
H249        H  0.44551989  0.49113879  0.69933868     0.37300
H250        H  0.47817941  0.69368511  0.64932302     0.31800
H251        H  0.40442710  0.63795763  0.57769141     0.30600
H252        H  0.39746077  0.58720867  0.54754551     0.32300
H253        H  0.38697628  0.51010761  0.60075422     0.31300
H254        H  0.54756622  0.69451786  0.67367716     0.35300
H255        H  0.55314956  0.63181096  0.59271064     0.28000
H256        H  0.36363190  0.56962580  0.82255607     0.32300
H257        H  0.37122184  0.46865041  0.69943848     0.35100
H258        H  0.41857074  0.65909101  0.62087498     0.27700
H259        H  0.55492826  0.65672635  0.62680029     0.40600
H260        H  0.53080760  0.61365962  0.84051427     0.30600
H261        H  0.53418023  0.67394533  0.79087894     0.38300
H262        H  0.36830684  0.51933992  0.63257249     0.30100
H263        H  0.45875118  0.53446897  0.83262123     0.30200
H264        H  0.36881565  0.54193965  0.81119857     0.30400
Zr265      Zr  0.09525352  0.58095315  0.20812384     2.17500
O266        O  0.07648225  0.61392914  0.23606211    -0.51900
O267        O  0.06020591  0.53394407  0.24897859    -0.75100
O268        O  0.04565596  0.55924291  0.16519864    -0.81900
O269        O  0.15395370  0.59131053  0.29673334    -0.83600
O270        O  0.06159353  0.58470494  0.09917507    -0.79300
O271        O  0.10746725  0.58790160  0.28886492    -0.90900
O272        O  0.06809011  0.49550625  0.22532522    -0.76900
O273        O  0.08292836  0.54527185  0.14737013    -0.86400
O274        O  0.12140037  0.55341063  0.22353881    -0.86100
O275        O  0.11621334  0.61505886  0.14353921    -0.72800
O276        O  0.14997328  0.61897610  0.21290381    -0.84900
Zr277      Zr  0.18306663  0.58743218  0.09982349     2.26400
Zr278      Zr  0.10455735  0.57863169  0.08305501     2.06300
Zr279      Zr  0.17532724  0.59019926  0.22543280     2.10000
Zr280      Zr  0.10761333  0.51701071  0.16426351     1.78800
O281        O  0.21561857  0.63482154  0.26707300    -0.93700
O282        O  0.06246654  0.47702313  0.12328680    -0.41600
O283        O  0.16256447  0.55381146  0.16512873    -0.78200
O284        O  0.12854985  0.54876874  0.09674699    -0.96900
O285        O  0.15827884  0.61608600  0.08579853    -0.90200
O286        O  0.19615011  0.62311049  0.16098270    -0.93000
C287        C  0.05489922  0.50596199  0.25143173     1.00700
C288        C  0.12982980  0.58987587  0.31236107     1.13700
C289        C  0.04005584  0.56548549  0.12491787     1.04400
O290        O  0.06329789  0.53139196  0.04739348    -0.95200
O291        O  0.12517931  0.57751597  0.01162001    -0.90900
O292        O  0.17393536  0.58684405  0.01899736    -0.84100
C293        C  0.15050670  0.58216052  0.99575916     1.11100
O294        O  0.16059374  0.68892821  0.18291971    -0.97200
Zr295      Zr  0.17085712  0.65129600  0.14687112     1.88900
O296        O  0.22417560  0.63779379  0.07022641    -0.73800
O297        O  0.09984706  0.61019549  0.02395171    -0.53100
O298        O  0.15817855  0.67936693  0.09163795    -0.97700
O299        O  0.21246252  0.68973953  0.19501378    -0.55000
O300        O  0.21398034  0.67464583  0.09407118    -0.74300
C301        C  0.22988787  0.66612384  0.07098520     0.98000
O302        O  0.19458573  0.55181010  0.06031101    -0.63100
O303        O  0.18033641  0.55324531  0.27359980    -0.57900
O304        O  0.22777752  0.58950360  0.13507701    -0.94600
O305        O  0.22146166  0.58872123  0.21103616    -0.93000
O306        O  0.12296692  0.48819562  0.21369221    -0.93400
O307        O  0.11411941  0.47857537  0.12305494    -0.92200
C308        C  0.23644034  0.58900524  0.17603944     1.16900
H309        H  0.11566481  0.54261900  0.25226271     0.32800
H310        H  0.12453229  0.53496669  0.07133759     0.43700
H311        H  0.21816939  0.63698140  0.16389975     0.37200
H312        H  0.10612046  0.62685208  0.13945526     0.33700
H313        H  0.04792054  0.46347944  0.14710815     0.26700
H314        H  0.07803580  0.59811786  0.01403660     0.31400
H315        H  0.15860143  0.67039496  0.06193690     0.37300
H316        H  0.14509343  0.49699343  0.20726377     0.31800
H317        H  0.18516600  0.56269824  0.30425749     0.30600
H318        H  0.22231937  0.62545358  0.29073774     0.32300
H319        H  0.23147881  0.69170121  0.18261110     0.31300
H320        H  0.13484213  0.49090889  0.10937329     0.35300
H321        H  0.19708874  0.53955129  0.08459254     0.28000
H322        H  0.05576206  0.59894862  0.24816780     0.32300
H323        H  0.17557894  0.70957459  0.16962757     0.35100
H324        H  0.15924056  0.53481285  0.27608240     0.27700
H325        H  0.17502131  0.53643529  0.04520127     0.40600
H326        H  0.06045561  0.53825466  0.01717702     0.30600
H327        H  0.05279677  0.48811177  0.11003547     0.38300
H328        H  0.20940349  0.67900285  0.22450029     0.30100
H329        H  0.10199029  0.62864037  0.03994949     0.30200
H330        H  0.07250822  0.62259491  0.20839586     0.30400
Zr331      Zr  0.10098380  0.57866331  0.70624647     2.17500
O332        O  0.08012711  0.60896094  0.73757513    -0.51900
O333        O  0.06772282  0.53106809  0.74733738    -0.75100
O334        O  0.05119082  0.55619534  0.66381118    -0.81900
O335        O  0.16491082  0.59554941  0.79064092    -0.83600
O336        O  0.06761939  0.58564437  0.60168250    -0.79300
O337        O  0.11581640  0.58620137  0.78607188    -0.90900
O338        O  0.07619675  0.49348496  0.72058595    -0.76900
O339        O  0.08929969  0.54483776  0.64319728    -0.86400
O340        O  0.12858578  0.55223069  0.71832894    -0.86100
O341        O  0.12036787  0.61397519  0.64280556    -0.72800
O342        O  0.15541882  0.61733530  0.71028540    -0.84900
Zr343      Zr  0.18858289  0.58884312  0.59242286     2.26400
Zr344      Zr  0.10959729  0.57932218  0.57950269     2.06300
Zr345      Zr  0.18239672  0.58985223  0.71872486     2.10000
Zr346      Zr  0.11452127  0.51682506  0.65746150     1.78800
O347        O  0.22466181  0.63383711  0.75872508    -0.93700
O348        O  0.06712311  0.47772451  0.62004741    -0.41600
O349        O  0.16934537  0.55438021  0.65713492    -0.78200
O350        O  0.13394579  0.54917818  0.58989138    -0.96900
O351        O  0.16315187  0.61748303  0.58337229    -0.90200
O352        O  0.20144031  0.62347851  0.65511081    -0.93000
C353        C  0.06308617  0.50324154  0.74821997     1.00700
C354        C  0.14026685  0.59197090  0.80783872     1.13700
C355        C  0.04588765  0.56393175  0.62443113     1.04400
O356        O  0.08156263  0.53315469  0.53144188    -0.95200
O357        O  0.14842617  0.61131619  0.52534813    -0.90900
O358        O  0.17263173  0.58554240  0.51346159    -0.84100
C359        C  0.15831283  0.59866537  0.49848278     1.11100
O360        O  0.16362981  0.68837306  0.67967709    -0.97200
Zr361      Zr  0.17500216  0.65095143  0.64577735     1.88900
O362        O  0.22891765  0.64015067  0.56466623    -0.73800
O363        O  0.08274440  0.58888800  0.51862428    -0.53100
O364        O  0.16289409  0.67779451  0.58763074    -0.97700
O365        O  0.21272731  0.68824028  0.69952725    -0.55000
O366        O  0.22072877  0.67604566  0.59803452    -0.74300
C367        C  0.23599435  0.66862095  0.57153973     0.98000
O368        O  0.20568320  0.55854798  0.55022718    -0.63100
O369        O  0.18527809  0.55127061  0.76604775    -0.57900
O370        O  0.23432472  0.59159046  0.62532333    -0.94600
O371        O  0.23011738  0.59189635  0.70161203    -0.93000
O372        O  0.13232522  0.48765178  0.70113500    -0.93400
O373        O  0.12279219  0.48144638  0.61120720    -0.92200
C374        C  0.24457236  0.59255254  0.66570078     1.16900
H375        H  0.12362343  0.54141505  0.74703901     0.32800
H376        H  0.13006515  0.53582609  0.56393256     0.43700
H377        H  0.22340084  0.63772598  0.65794618     0.37200
H378        H  0.11028514  0.62589532  0.64080284     0.33700
H379        H  0.06287084  0.45741856  0.63253174     0.25500
H380        H  0.09010547  0.58455573  0.49012368     0.31400
H381        H  0.14250429  0.66170184  0.57549997     0.37300
H382        H  0.12656416  0.48862686  0.73284589     0.31800
H383        H  0.16572977  0.54048057  0.78321573     0.30600
H384        H  0.23000850  0.62412345  0.78363429     0.32300
H385        H  0.23297219  0.69547102  0.68540156     0.31300
H386        H  0.14404817  0.49464614  0.59955059     0.35300
H387        H  0.20485228  0.54315158  0.57235680     0.28000
H388        H  0.05943642  0.59298752  0.74871532     0.32300
H389        H  0.17803884  0.70879275  0.66528828     0.35100
H390        H  0.18374155  0.53531085  0.74452458     0.27700
H391        H  0.18878536  0.54562286  0.52871045     0.40600
H392        H  0.06343842  0.51832688  0.54962652     0.30600
H393        H  0.05088352  0.48062758  0.63332545     0.38300
H394        H  0.21192244  0.67533681  0.72565795     0.30100
H395        H  0.09187311  0.61189271  0.51854585     0.30200
H396        H  0.07603186  0.61831215  0.71083599     0.30400
Zr397      Zr  0.90452794  0.40799091  0.45591420     2.17500
O398        O  0.92071550  0.37405334  0.48910139    -0.51900
O399        O  0.94159685  0.45472243  0.49472440    -0.75100
O400        O  0.95455284  0.42916794  0.41663374    -0.81900
O401        O  0.84001595  0.37925897  0.52845269    -0.83600
O402        O  0.93753228  0.40181287  0.35282410    -0.79300
O403        O  0.89106561  0.40815744  0.53547053    -0.90900
O404        O  0.93661436  0.49472172  0.46940174    -0.76900
O405        O  0.91860372  0.44367821  0.39436870    -0.86400
O406        O  0.87943399  0.43696128  0.46803737    -0.86100
O407        O  0.88455211  0.37476467  0.38987327    -0.72800
O408        O  0.84963470  0.37094053  0.45724393    -0.84900
Zr409      Zr  0.82083883  0.40556938  0.33989765     2.26400
Zr410      Zr  0.89801519  0.41161572  0.32837802     2.06300
Zr411      Zr  0.82524340  0.40075014  0.46741580     2.10000
Zr412      Zr  0.89577870  0.47383111  0.40898756     1.78800
O413        O  0.77919199  0.36187364  0.50739268    -0.93700
O414        O  0.94176502  0.51238881  0.36842895    -0.41600
O415        O  0.84068142  0.43773166  0.40681363    -0.78200
O416        O  0.87572046  0.44349883  0.33956471    -0.96900
O417        O  0.84404358  0.37507247  0.32971464    -0.90200
O418        O  0.80547563  0.36934104  0.40120089    -0.93000
C419        C  0.94909542  0.48340667  0.49577673     1.00700
C420        C  0.86397336  0.39626842  0.55225045     1.13700
C421        C  0.95955442  0.42237955  0.37669330     1.04400
O422        O  0.93057654  0.46129516  0.28953690    -0.95200
O423        O  0.86366351  0.38463896  0.26628078    -0.90900
O424        O  0.83683977  0.40884047  0.26057370    -0.84100
C425        C  0.85072760  0.39604293  0.24266043     1.11100
O426        O  0.83771562  0.30139655  0.43029904    -0.97200
Zr427      Zr  0.82953660  0.33956021  0.39070861     1.88900
O428        O  0.77962935  0.35569110  0.30911068    -0.73800
O429        O  0.92246619  0.40288579  0.26358426    -0.53100
O430        O  0.84223331  0.31010935  0.33843180    -0.97700
O431        O  0.78698944  0.30335094  0.43921481    -0.55000
O432        O  0.78674300  0.31735965  0.33691510    -0.74300
C433        C  0.77247775  0.32689524  0.31167411     0.98000
O434        O  0.80696532  0.43894258  0.29834639    -0.63100
O435        O  0.83138489  0.43894407  0.52439590    -0.57900
O436        O  0.77762488  0.40775232  0.37307074    -0.94600
O437        O  0.78148048  0.40602781  0.44955055    -0.93000
O438        O  0.88029838  0.50169319  0.45978000    -0.93400
O439        O  0.88929724  0.51380196  0.37191603    -0.92200
C440        C  0.76832341  0.40809141  0.41356474     1.16900
H441        H  0.88502345  0.44809122  0.49637637     0.32800
H442        H  0.88038147  0.45753757  0.31419600     0.43700
H443        H  0.78332444  0.35610016  0.40279658     0.37200
H444        H  0.89348299  0.36178641  0.38746802     0.33700
H445        H  0.95051138  0.53159406  0.38719325     0.25500
H446        H  0.94494968  0.41686229  0.26789845     0.31400
H447        H  0.82376768  0.28875502  0.33757291     0.37300
H448        H  0.88467905  0.49723209  0.49074025     0.31800
H449        H  0.81559073  0.44423863  0.51679042     0.30600
H450        H  0.77993182  0.37172826  0.53683976     0.32300
H451        H  0.76851310  0.30242931  0.42629447     0.31300
H452        H  0.88813074  0.50913000  0.33911620     0.35300
H453        H  0.80978026  0.45516376  0.32044420     0.28000
H454        H  0.90377712  0.36018817  0.50990136     0.32300
H455        H  0.82134374  0.28051933  0.41943002     0.35100
H456        H  0.82406909  0.42693380  0.55303089     0.27700
H457        H  0.82375165  0.45062470  0.27624954     0.40600
H458        H  0.95160250  0.46880015  0.30113711     0.30600
H459        H  0.95653137  0.50519489  0.37207949     0.38300
H460        H  0.79068392  0.31467382  0.46830341     0.30100
H461        H  0.91859988  0.38142286  0.26767854     0.30200
H462        H  0.93806284  0.38801518  0.50941315     0.30400
Zr463      Zr  0.90257165  0.41644077  0.94651000     2.17500
O464        O  0.91941268  0.38134068  0.97271031    -0.51900
O465        O  0.93781981  0.46231387  0.98916166    -0.75100
O466        O  0.95242878  0.43304970  0.90655117    -0.81900
O467        O  0.84076593  0.39631367  0.03562622    -0.83600
O468        O  0.94378748  0.43455862  0.83115838    -0.79300
O469        O  0.88965275  0.40582026  0.02708838    -0.90900
O470        O  0.92731849  0.50044701  0.97512782    -0.76900
O471        O  0.91439553  0.45534448  0.89078953    -0.86400
O472        O  0.87471965  0.44149613  0.96656084    -0.86100
O473        O  0.88407844  0.38764130  0.87724201    -0.72800
O474        O  0.84824064  0.37716410  0.94868146    -0.84900
Zr475      Zr  0.81445275  0.41294016  0.83986243     2.26400
Zr476      Zr  0.89399009  0.42693653  0.82213984     2.06300
Zr477      Zr  0.82089251  0.40336529  0.96550814     2.10000
Zr478      Zr  0.88828507  0.48122602  0.91224595     1.78800
O479        O  0.78030649  0.35515877  0.99982837    -0.93700
O480        O  0.93501962  0.52225931  0.87591695    -0.41600
O481        O  0.83367983  0.44261669  0.90933255    -0.78200
O482        O  0.86822595  0.45402704  0.84062502    -0.96900
O483        O  0.84118197  0.38712428  0.82174683    -0.90200
O484        O  0.80246781  0.37459685  0.89708858    -0.93000
C485        C  0.94188135  0.48936851  0.99712403     1.00700
C486        C  0.86592971  0.39970004  0.05092922     1.13700
C487        C  0.96118213  0.43764245  0.86441840     1.04400
O488        O  0.92961347  0.47610603  0.78443729    -0.95200
O489        O  0.87311011  0.42788904  0.75062626    -0.90900
O490        O  0.82321889  0.41450437  0.75818874    -0.84100
C491        C  0.84692588  0.42070601  0.73449342     1.11100
O492        O  0.84357070  0.31386289  0.91448543    -0.97200
Zr493      Zr  0.83002402  0.34932228  0.87880642     1.88900
O494        O  0.77371374  0.36252709  0.80887647    -0.73800
O495        O  0.90049514  0.39397906  0.76782904    -0.53100
O496        O  0.84719958  0.32860489  0.81857596    -0.97700
O497        O  0.78685325  0.30479022  0.91679436    -0.55000
O498        O  0.78709123  0.32682733  0.82649822    -0.74300
C499        C  0.76985561  0.33490204  0.80630681     0.98000
O500        O  0.79974158  0.44752813  0.80427846    -0.63100
O501        O  0.81530010  0.43664340  0.02036100    -0.57900
O502        O  0.76990723  0.40968984  0.87558521    -0.94600
O503        O  0.77369039  0.40407477  0.95123038    -0.93000
O504        O  0.87083201  0.50696909  0.96365676    -0.93400
O505        O  0.88071485  0.52052765  0.87527968    -0.92200
C506        C  0.75993731  0.40682173  0.91634085     1.16900
H507        H  0.88003226  0.45053835  0.99647666     0.32800
H508        H  0.87188226  0.46907595  0.81708577     0.43700
H509        H  0.78057354  0.35982907  0.89892490     0.37200
H510        H  0.89558986  0.37765759  0.87030676     0.33700
H511        H  0.94113827  0.54134126  0.89398143     0.25500
H512        H  0.91956807  0.40841898  0.75105579     0.31400
H513        H  0.83192427  0.30586773  0.81781924     0.37300
H514        H  0.84919010  0.49914444  0.95471702     0.31800
H515        H  0.81735764  0.42941619  0.05074916     0.30600
H516        H  0.77608691  0.36183992  0.02914832     0.32300
H517        H  0.76818999  0.30498467  0.90729756     0.31300
H518        H  0.86166894  0.50831189  0.85706930     0.35300
H519        H  0.80260887  0.46263014  0.82835987     0.28000
H520        H  0.94057112  0.39541616  0.98428894     0.32300
H521        H  0.83149987  0.29367212  0.89825326     0.35100
H522        H  0.83409838  0.45754008  0.01689216     0.27700
H523        H  0.81632752  0.46024010  0.78233785     0.40600
H524        H  0.94134328  0.47082054  0.76322898     0.30600
H525        H  0.95098497  0.51709334  0.88301024     0.38300
H526        H  0.78952933  0.31082677  0.94916200     0.30100
H527        H  0.90588033  0.38085257  0.78623026     0.30200
H528        H  0.92217005  0.37216660  0.94468717     0.30400
Zr529      Zr  0.57565090  0.09803024  0.06940479     2.17500
O530        O  0.60369816  0.07398806  0.04133275    -0.51900
O531        O  0.52836239  0.06395030  0.02986245    -0.75100
O532        O  0.55479925  0.04803891  0.11282660    -0.81900
O533        O  0.58915992  0.15968402  0.98117693    -0.83600
O534        O  0.58205732  0.06604964  0.17668891    -0.79300
O535        O  0.58334864  0.11122795  0.98853527    -0.90900
O536        O  0.49235730  0.07395234  0.05642196    -0.76900
O537        O  0.54246921  0.08768768  0.13210254    -0.86400
O538        O  0.55053219  0.12683621  0.05616155    -0.86100
O539        O  0.61008379  0.11819859  0.13319792    -0.72800
O540        O  0.61466421  0.15296855  0.06250690    -0.84900
Zr541      Zr  0.58851413  0.19054843  0.17967084     2.26400
Zr542      Zr  0.57612771  0.10936873  0.19590038     2.06300
Zr543      Zr  0.58843845  0.18116521  0.05305460     2.10000
Zr544      Zr  0.51621390  0.11449412  0.11700962     1.78800
O545        O  0.63387430  0.22256759  0.01492528    -0.93700
O546        O  0.48056859  0.06894728  0.16192234    -0.41600
O547        O  0.55436404  0.16981717  0.11504299    -0.78200
O548        O  0.54812232  0.13568751  0.18424316    -0.96900
O549        O  0.61508701  0.16329831  0.19005339    -0.90200
O550        O  0.62188922  0.20161808  0.11669991    -0.93000
C551        C  0.50120152  0.05966591  0.02944998     1.00700
C552        C  0.58684552  0.13476968  0.96523593     1.13700
C553        C  0.56220943  0.04330734  0.15276833     1.04400
O554        O  0.52805128  0.08151651  0.23824976    -0.95200
O555        O  0.60762212  0.14775403  0.25138937    -0.90900
O556        O  0.58342653  0.17401834  0.25920247    -0.84100
C557        C  0.59604984  0.15969268  0.27640098     1.11100
O558        O  0.68202889  0.16095331  0.08795093    -0.97200
Zr559      Zr  0.64747265  0.17322846  0.12731667     1.88900
O560        O  0.64044146  0.22972385  0.20690796    -0.73800
O561        O  0.58220071  0.08480441  0.26375332    -0.53100
O562        O  0.67546793  0.15858507  0.17907141    -0.97700
O563        O  0.68557145  0.21586936  0.08014448    -0.55000
O564        O  0.67353313  0.21562761  0.18087261    -0.74300
C565        C  0.66738134  0.23309630  0.20488337     0.98000
O566        O  0.56575054  0.21458056  0.22409950    -0.63100
O567        O  0.55280127  0.18643839  0.00337231    -0.57900
O568        O  0.58430460  0.23287129  0.14391584    -0.94600
O569        O  0.58767982  0.22846175  0.06770480    -0.93000
O570        O  0.48348542  0.12503836  0.06890615    -0.93400
O571        O  0.48365327  0.12969970  0.15583483    -0.92200
C572        C  0.58514596  0.24210046  0.10276734     1.16900
H573        H  0.53949014  0.12130952  0.02774197     0.32800
H574        H  0.53513355  0.13284702  0.20988352     0.43700
H575        H  0.63610327  0.22387249  0.11356516     0.37200
H576        H  0.62144553  0.10761212  0.13611949     0.33700
H577        H  0.46013206  0.06630279  0.15611696     0.25500
H578        H  0.56614394  0.06228793  0.26188299     0.31400
H579        H  0.66025654  0.14564176  0.20260676     0.37300
H580        H  0.49693549  0.14708273  0.05923475     0.31800
H581        H  0.56527489  0.19832805  0.97678354     0.30600
H582        H  0.62583115  0.22695344  0.98701333     0.32300
H583        H  0.68494796  0.23468455  0.08899909     0.31300
H584        H  0.49794891  0.15165904  0.16537933     0.35300
H585        H  0.54798853  0.19698508  0.23983277     0.28000
H586        H  0.58773139  0.05432277  0.02670220     0.32300
H587        H  0.66944671  0.13814681  0.08204075     0.35100
H588        H  0.53848276  0.16510775  0.99158895     0.27700
H589        H  0.58093611  0.22635609  0.24839347     0.40600
H590        H  0.53245052  0.09296609  0.26736846     0.30600
H591        H  0.47964043  0.05090299  0.14633089     0.38300
H592        H  0.67675659  0.21083122  0.04917378     0.30100
H593        H  0.60192140  0.08553283  0.25969400     0.30200
H594        H  0.60975081  0.06701156  0.06886965     0.30400
Zr595      Zr  0.57769654  0.09836831  0.56937931     2.17500
O596        O  0.60807124  0.07645602  0.54310574    -0.51900
O597        O  0.53171998  0.06554529  0.52627575    -0.75100
O598        O  0.55374843  0.04743056  0.61110799    -0.81900
O599        O  0.59160286  0.15992087  0.48124974    -0.83600
O600        O  0.57993546  0.06430566  0.67585444    -0.79300
O601        O  0.58562504  0.11141212  0.48850845    -0.90900
O602        O  0.49523094  0.07567050  0.55034088    -0.76900
O603        O  0.54252977  0.08772333  0.62946571    -0.86400
O604        O  0.55375215  0.12808852  0.55442001    -0.86100
O605        O  0.61015892  0.11714194  0.63560154    -0.72800
O606        O  0.61773145  0.15313066  0.56531451    -0.84900
Zr607      Zr  0.58797844  0.18953646  0.67918978     2.26400
Zr608      Zr  0.57416289  0.10764986  0.69550821     2.06300
Zr609      Zr  0.59260584  0.18214657  0.55324814     2.10000
Zr610      Zr  0.51741256  0.11548979  0.61229339     1.78800
O611        O  0.64037782  0.21984154  0.51568934    -0.93700
O612        O  0.47609998  0.07036388  0.65175588    -0.41600
O613        O  0.55624135  0.17055220  0.61224132    -0.78200
O614        O  0.54731188  0.13481714  0.68160802    -0.96900
O615        O  0.61348450  0.16147537  0.69211006    -0.90200
O616        O  0.62363244  0.20111586  0.61917416    -0.93000
C617        C  0.50475413  0.06169231  0.52391204     1.00700
C618        C  0.58885775  0.13483960  0.46520994     1.13700
C619        C  0.55974866  0.04206686  0.65160508     1.04400
O620        O  0.52393868  0.07796618  0.73181818    -0.95200
O621        O  0.60443421  0.14509189  0.75302762    -0.90900
O622        O  0.58267563  0.17405314  0.75885560    -0.84100
C623        C  0.59385733  0.15862059  0.77681008     1.11100
O624        O  0.68247195  0.15566039  0.60272711    -0.97200
Zr625      Zr  0.64834357  0.17219586  0.63262445     1.88900
O626        O  0.63888589  0.23032330  0.70666817    -0.73800
O627        O  0.57791488  0.08278039  0.76470019    -0.53100
O628        O  0.67474397  0.16125635  0.69249268    -0.97700
O629        O  0.68795894  0.21237616  0.58405833    -0.55000
O630        O  0.67328760  0.21781378  0.68137334    -0.74300
C631        C  0.66638753  0.23527670  0.70409872     0.98000
O632        O  0.55922711  0.20846640  0.72036109    -0.63100
O633        O  0.56125667  0.19282925  0.50213121    -0.57900
O634        O  0.58704578  0.23347131  0.64372078    -0.94600
O635        O  0.59427643  0.23075555  0.56820690    -0.93000
O636        O  0.49225822  0.13453883  0.56236000    -0.93400
O637        O  0.48193509  0.12663864  0.65139457    -0.92200
C638        C  0.59055105  0.24390349  0.60286350     1.16900
H639        H  0.54336083  0.12314091  0.52552925     0.32800
H640        H  0.53371382  0.13170552  0.70653772     0.43700
H641        H  0.63816620  0.22335144  0.61653424     0.37200
H642        H  0.62125102  0.10632249  0.63936541     0.33700
H643        H  0.45754434  0.06389197  0.63292050     0.25500
H644        H  0.56300524  0.06006265  0.76113810     0.31400
H645        H  0.65817769  0.14670936  0.71328308     0.37300
H646        H  0.47395762  0.11540157  0.55032991     0.31800
H647        H  0.57498507  0.20436243  0.47636467     0.30600
H648        H  0.64235853  0.24046717  0.52024817     0.32300
H649        H  0.68669283  0.23134511  0.58869248     0.31300
H650        H  0.49542160  0.14647135  0.66782632     0.35300
H651        H  0.54150054  0.18951284  0.73387803     0.28000
H652        H  0.59382158  0.05878925  0.52330487     0.32300
H653        H  0.70355803  0.17229487  0.61163567     0.35100
H654        H  0.54578061  0.17218930  0.48943300     0.27700
H655        H  0.57246866  0.22036741  0.74641184     0.40600
H656        H  0.51578664  0.05602083  0.72217230     0.30600
H657        H  0.48055316  0.05344622  0.64745301     0.38300
H658        H  0.68034049  0.20551822  0.55279688     0.30100
H659        H  0.59838914  0.08486480  0.76316602     0.30200
H660        H  0.61076727  0.06635097  0.57023008     0.30400
Zr661      Zr  0.42000688  0.90086545  0.32426333     2.17500
O662        O  0.38733856  0.92031505  0.29790242    -0.51900
O663        O  0.46492730  0.93499844  0.27946219    -0.75100
O664        O  0.44097003  0.95272893  0.36236537    -0.81900
O665        O  0.40599512  0.83695908  0.24000207    -0.83600
O666        O  0.41863953  0.93682384  0.43002689    -0.79300
O667        O  0.40982635  0.88463926  0.24464692    -0.90900
O668        O  0.50320181  0.92749004  0.30373572    -0.76900
O669        O  0.45789346  0.91524266  0.38198475    -0.86400
O670        O  0.44551413  0.87270097  0.31006812    -0.86100
O671        O  0.39003868  0.88281135  0.39280752    -0.72800
O672        O  0.38184037  0.84533541  0.32483271    -0.84900
Zr673      Zr  0.41662654  0.81474574  0.44024508     2.26400
Zr674      Zr  0.42897446  0.89655905  0.45004053     2.06300
Zr675      Zr  0.40866853  0.81802298  0.31340124     2.10000
Zr676      Zr  0.48368163  0.88809804  0.36611784     1.78800
O677        O  0.36172036  0.77688374  0.27768494    -0.93700
O678        O  0.52502000  0.93543154  0.40159139    -0.41600
O679        O  0.44653189  0.83258876  0.37140055    -0.78200
O680        O  0.45622561  0.86995228  0.43754545    -0.96900
O681        O  0.39065161  0.84234258  0.45242411    -0.90200
O682        O  0.37953234  0.80011990  0.38111318    -0.93000
C683        C  0.49255526  0.94051507  0.27729978     1.00700
C684        C  0.40706899  0.86101605  0.22261395     1.13700
C685        C  0.43559487  0.95873097  0.40274222     1.04400
O686        O  0.48162956  0.93624078  0.46999580    -0.95200
O687        O  0.42183852  0.87438769  0.52405703    -0.90900
O688        O  0.41521115  0.82571754  0.52083257    -0.84100
C689        C  0.41731733  0.84915490  0.54236318     1.11100
O690        O  0.31841542  0.84174719  0.36015996    -0.97200
Zr691      Zr  0.35351848  0.82762730  0.39408404     1.88900
O692        O  0.36692494  0.77253207  0.46950878    -0.73800
O693        O  0.41804705  0.91845208  0.51628950    -0.53100
O694        O  0.32886196  0.84000780  0.45442761    -0.97700
O695        O  0.31242213  0.78551875  0.34943348    -0.55000
O696        O  0.33098172  0.78393123  0.44648056    -0.74300
C697        C  0.33929657  0.76746156  0.46901908     0.98000
O698        O  0.45084815  0.80364853  0.48390162    -0.63100
O699        O  0.44311552  0.81232069  0.26229094    -0.57900
O700        O  0.41750353  0.76997569  0.40750955    -0.94600
O701        O  0.40847796  0.77045029  0.33195683    -0.93000
O702        O  0.50701700  0.86989862  0.31175684    -0.93400
O703        O  0.52221855  0.87978467  0.40192912    -0.92200
C704        C  0.41339290  0.75848975  0.36722495     1.16900
H705        H  0.45520643  0.87743883  0.28038723     0.32800
H706        H  0.47079335  0.87468383  0.46191055     0.43700
H707        H  0.36549152  0.77773435  0.37999951     0.37200
H708        H  0.37818011  0.89279020  0.39656524     0.33700
H709        H  0.54317684  0.94179627  0.38212417     0.25500
H710        H  0.43323382  0.94125340  0.51554337     0.31400
H711        H  0.34608999  0.85687590  0.47210301     0.37300
H712        H  0.52814007  0.88801172  0.30730142     0.31800
H713        H  0.43014375  0.79160622  0.24776062     0.30600
H714        H  0.36888118  0.76722531  0.25541282     0.32300
H715        H  0.29549585  0.77349733  0.37124506     0.31300
H716        H  0.51013034  0.85910807  0.41691778     0.35300
H717        H  0.46585651  0.80483000  0.46146076     0.28000
H718        H  0.37298919  0.91612027  0.32330059     0.32300
H719        H  0.29896488  0.82987803  0.37738001     0.35100
H720        H  0.45734111  0.80968766  0.28232002     0.27700
H721        H  0.46314095  0.82236604  0.50318055     0.40600
H722        H  0.48494611  0.92981153  0.50023155     0.30600
H723        H  0.51967923  0.95164761  0.39596757     0.38300
H724        H  0.31993810  0.77129196  0.34192688     0.30100
H725        H  0.39788070  0.91643033  0.51017483     0.30200
H726        H  0.37424480  0.90549409  0.27391092     0.30400
Zr727      Zr  0.41105522  0.90338596  0.82244405     2.17500
O728        O  0.38093561  0.92528935  0.79438066    -0.51900
O729        O  0.45745849  0.93755987  0.77969169    -0.75100
O730        O  0.43218232  0.95327850  0.86560315    -0.81900
O731        O  0.37269036  0.83728102  0.75014370    -0.83600
O732        O  0.40866527  0.93518382  0.93208059    -0.79300
O733        O  0.40370576  0.88893623  0.74251654    -0.90900
O734        O  0.49367112  0.92617492  0.80096483    -0.76900
O735        O  0.44763051  0.91378988  0.88063372    -0.86400
O736        O  0.43472715  0.87365000  0.80447917    -0.86100
O737        O  0.38004819  0.88335057  0.88968880    -0.72800
O738        O  0.37092458  0.84850088  0.82146802    -0.84900
Zr739      Zr  0.40445977  0.81195181  0.93112916     2.26400
Zr740      Zr  0.41764989  0.89346231  0.94782639     2.06300
Zr741      Zr  0.39537142  0.81946991  0.80503448     2.10000
Zr742      Zr  0.47223294  0.88588257  0.86125924     1.78800
O743        O  0.35198107  0.77166393  0.77392282    -0.93700
O744        O  0.51532412  0.93153193  0.89735534    -0.41600
O745        O  0.43337743  0.83110944  0.86210841    -0.78200
O746        O  0.44476642  0.86683041  0.93222560    -0.96900
O747        O  0.37868148  0.83929105  0.94727216    -0.90200
O748        O  0.36687945  0.79969035  0.87335531    -0.93000
C749        C  0.48435850  0.94115769  0.77633900     1.00700
C750        C  0.38923928  0.86120779  0.72564720     1.13700
C751        C  0.42674327  0.95790466  0.90671701     1.04400
O752        O  0.46903288  0.92416341  0.98074066    -0.95200
O753        O  0.39114180  0.85769121  0.00864894    -0.90900
O754        O  0.41348158  0.82916581  0.01054019    -0.84100
C755        C  0.40291622  0.84445287  0.03065147     1.11100
O756        O  0.30171691  0.83647748  0.86134729    -0.97200
Zr757      Zr  0.34214979  0.82814251  0.88971072     1.88900
O758        O  0.35473252  0.77072850  0.96100475    -0.73800
O759        O  0.41719315  0.92251474  0.01402625    -0.53100
O760        O  0.32062543  0.84660167  0.94680871    -0.97700
O761        O  0.30365120  0.78777426  0.83990376    -0.55000
O762        O  0.31970028  0.78469320  0.94349201    -0.74300
C763        C  0.32777602  0.76716743  0.96371493     0.98000
O764        O  0.42999544  0.78927207  0.97247666    -0.63100
O765        O  0.42617399  0.82260044  0.73971455    -0.57900
O766        O  0.41035078  0.77207240  0.89137881    -0.94600
O767        O  0.40264347  0.77583694  0.81627478    -0.93000
O768        O  0.49393083  0.86519454  0.80809920    -0.93400
O769        O  0.50948164  0.87613493  0.89835012    -0.92200
C770        C  0.40860369  0.76337481  0.84977893     1.16900
H771        H  0.44419614  0.87864310  0.77492230     0.32800
H772        H  0.45918375  0.87032740  0.95629659     0.43700
H773        H  0.35247411  0.77740474  0.87111944     0.37200
H774        H  0.36864198  0.89374482  0.89416159     0.33700
H775        H  0.53289801  0.93809977  0.87650811     0.25500
H776        H  0.42468015  0.91537887  0.03972040     0.31400
H777        H  0.33198473  0.84823716  0.97505481     0.37300
H778        H  0.51335693  0.88377920  0.79767962     0.31800
H779        H  0.43831622  0.81327961  0.75001693     0.30600
H780        H  0.36070692  0.76553761  0.74886717     0.32300
H781        H  0.30027262  0.76775255  0.85216377     0.31300
H782        H  0.49680226  0.85546907  0.91313210     0.35300
H783        H  0.44840603  0.80723981  0.98656608     0.28000
H784        H  0.37430254  0.93138519  0.82204408     0.32300
H785        H  0.28263538  0.82072429  0.87698813     0.35100
H786        H  0.41120369  0.80733508  0.71767884     0.27700
H787        H  0.41616094  0.77770725  0.99812044     0.40600
H788        H  0.47679243  0.94580260  0.96989066     0.30600
H789        H  0.51042094  0.94825884  0.89463493     0.38300
H790        H  0.31448048  0.79061073  0.81080833     0.30100
H791        H  0.39512480  0.91400244  0.02059688     0.30200
H792        H  0.36183710  0.90699574  0.78242025     0.30400
C793        C  0.38319032  0.82677440  0.60807937    -0.20900
C794        C  0.41278126  0.84766574  0.59151572    -0.07500
C795        C  0.43445830  0.87228174  0.61944678     0.13400
C796        C  0.42557829  0.87632843  0.66236985    -0.20900
C797        C  0.39560051  0.85636293  0.67851613    -0.07500
C798        C  0.37423998  0.83073251  0.65137182     0.13400
C799        C  0.34160902  0.80846704  0.66649595    -0.24300
H800        H  0.36643283  0.80849742  0.58593127     0.14700
H801        H  0.44250795  0.89513272  0.68364006     0.14700
C802        C  0.46708319  0.89501626  0.60468848    -0.24200
H803        H  0.32758895  0.79162964  0.63930662     0.04900
H804        H  0.33043785  0.82183241  0.67574600     0.08200
H805        H  0.34138230  0.79451455  0.69594785     0.08200
H806        H  0.47104682  0.91910072  0.60344559     0.08100
H807        H  0.47242750  0.88927065  0.57095715     0.08100
H808        H  0.48338018  0.89455041  0.62948943     0.04900
C809        C  0.38001934  0.84910731  0.10162772    -0.20900
C810        C  0.40421824  0.84798334  0.08022379    -0.07500
C811        C  0.43060826  0.85462345  0.10549611     0.13400
C812        C  0.43157872  0.86106722  0.15178888    -0.20900
C813        C  0.40701889  0.86122095  0.17318406    -0.07500
C814        C  0.38102417  0.85540987  0.14802633     0.13400
C815        C  0.35415501  0.85498036  0.17032145    -0.24300
H816        H  0.36018454  0.84500770  0.08194181     0.14700
H817        H  0.45131936  0.86522428  0.17186676     0.14700
C818        C  0.45810278  0.85587414  0.08388279    -0.24200
H819        H  0.33552519  0.84980527  0.14559518     0.04900
H820        H  0.36192435  0.87818217  0.18583641     0.08200
H821        H  0.34444517  0.83669882  0.19711196     0.08200
H822        H  0.46698826  0.87335784  0.05597320     0.08100
H823        H  0.45149175  0.83246068  0.07034553     0.08100
H824        H  0.47713281  0.86276671  0.10861517     0.04900
C825        C  0.55507570  0.00499222  0.71235530    -0.20900
C826        C  0.54132459  0.01088934  0.67495146    -0.07500
C827        C  0.50920387  0.99076292  0.66835456     0.13400
C828        C  0.49171075  0.96759978  0.70109424    -0.20900
C829        C  0.50517952  0.96356941  0.74052675    -0.07500
C830        C  0.53762475  0.98196072  0.74515880     0.13400
C831        C  0.55402120  0.97904670  0.78589765    -0.24300
H832        H  0.57969245  0.01997884  0.71758733     0.14700
H833        H  0.46700198  0.95309197  0.69644271     0.14700
C834        C  0.49283172  0.99435850  0.62819466    -0.24200
H835        H  0.57917514  0.99633105  0.78501362     0.04900
H836        H  0.55093278  0.95533622  0.78687652     0.08200
H837        H  0.54473780  0.98324113  0.81735982     0.08200
H838        H  0.50252133  0.99123394  0.59634625     0.08100
H839        H  0.49561427  0.01789889  0.62844802     0.08100
H840        H  0.46775635  0.97671079  0.62846638     0.04900
C841        C  0.49885894  0.03733721  0.44765535    -0.20900
C842        C  0.48452384  0.04003694  0.48697268    -0.07500
C843        C  0.45234024  0.01989261  0.49132280     0.13400
C844        C  0.43612197  0.99621103  0.45873902    -0.20900
C845        C  0.45116501  0.99104702  0.42257672    -0.07500
C846        C  0.48281861  0.01303821  0.41584824     0.13400
C847        C  0.50044569  0.00978902  0.37737754    -0.24300
H848        H  0.52338434  0.05329190  0.44311713     0.14700
H849        H  0.41178503  0.97968889  0.46395339     0.14700
C850        C  0.43525695  0.02141897  0.53193397    -0.24200
H851        H  0.52498624  0.02903387  0.37728439     0.04900
H852        H  0.49005245  0.01046079  0.34451485     0.08200
H853        H  0.49989637  0.98732481  0.38041756     0.08200
H854        H  0.43701816  0.04453647  0.53307400     0.08100
H855        H  0.44512112  0.01786688  0.56347422     0.08100
H856        H  0.41041114  0.00306655  0.53072385     0.04900
C857        C  0.56391173  0.13703641  0.84588691    -0.20900
C858        C  0.59288458  0.15373622  0.82557374    -0.07500
C859        C  0.61953600  0.16043446  0.85018337     0.13400
C860        C  0.61650004  0.15057350  0.89534014    -0.20900
C861        C  0.58751010  0.13421616  0.91595919    -0.07500
C862        C  0.56086456  0.12724560  0.89093163     0.13400
C863        C  0.52902542  0.11046445  0.91112672    -0.24300
H864        H  0.54346950  0.13118608  0.82627644     0.14700
H865        H  0.63692881  0.15720650  0.91544712     0.14700
C866        C  0.65119531  0.17922220  0.82954347    -0.24200
H867        H  0.51391115  0.08886376  0.89133080     0.04900
H868        H  0.51927410  0.12590344  0.90971633     0.08200
H869        H  0.52883380  0.10359767  0.94689966     0.08200
H870        H  0.65522163  0.20219335  0.81759814     0.08100
H871        H  0.65335730  0.16639510  0.80052065     0.08100
H872        H  0.66953721  0.18373008  0.85443343     0.04900
C873        C  0.56667145  0.14151673  0.34713754    -0.20900
C874        C  0.59500843  0.15370379  0.32523664    -0.07500
C875        C  0.62040581  0.15575352  0.34873848     0.13400
C876        C  0.61673387  0.14572901  0.39392607    -0.20900
C877        C  0.58846216  0.13389591  0.41588163    -0.07500
C878        C  0.56304184  0.13151714  0.39216148     0.13400
C879        C  0.53197749  0.11930173  0.41375763    -0.24300
H880        H  0.54705222  0.13927633  0.32877504     0.14700
H881        H  0.63646354  0.14893388  0.41307019     0.14700
C882        C  0.65182798  0.17017278  0.32730883    -0.24200
H883        H  0.51411052  0.09922222  0.39371808     0.04900
H884        H  0.52638673  0.13808925  0.41427614     0.08200
H885        H  0.53091727  0.11091949  0.44884881     0.08200
H886        H  0.65919483  0.19404947  0.31469499     0.08100
H887        H  0.65134487  0.15547145  0.29880849     0.08100
H888        H  0.66944860  0.17225829  0.35189464     0.04900
C889        C  0.56081917  0.00756016  0.21339896    -0.20900
C890        C  0.54596791  0.01185716  0.17585984    -0.07500
C891        C  0.51442070  0.98936344  0.16866829     0.13400
C892        C  0.49831266  0.96542186  0.20106493    -0.20900
C893        C  0.51255497  0.96314760  0.24099944    -0.07500
C894        C  0.54464752  0.98398628  0.24612922     0.13400
C895        C  0.56177867  0.98309544  0.28742325    -0.24300
H896        H  0.58508813  0.02426568  0.21900368     0.14700
H897        H  0.47392435  0.94898123  0.19594831     0.14700
C898        C  0.49703876  0.99122454  0.12839394    -0.24200
H899        H  0.58645223  0.00195803  0.28675175     0.04900
H900        H  0.56079483  0.96035687  0.28902336     0.08200
H901        H  0.55141491  0.98629735  0.31849688     0.08200
H902        H  0.50802406  0.99008172  0.09655921     0.08100
H903        H  0.49692344  0.01340144  0.12935476     0.08100
H904        H  0.47268928  0.97156756  0.12794325     0.04900
C905        C  0.43028316  0.99446840  0.96726593    -0.20900
C906        C  0.44401035  0.98927112  0.92934017    -0.07500
C907        C  0.47581178  0.01017609  0.92193369     0.13400
C908        C  0.49312333  0.03374939  0.95406657    -0.20900
C909        C  0.47990099  0.03731042  0.99396533    -0.07500
C910        C  0.44772314  0.01786536  0.99973845     0.13400
C911        C  0.43186943  0.01994826  0.04148635    -0.24300
H912        H  0.40592244  0.97856492  0.97331076     0.14700
H913        H  0.51770050  0.04873718  0.94880272     0.14700
C914        C  0.49226813  0.00661226  0.88205020    -0.24200
H915        H  0.40689456  0.00198044  0.04138242     0.04900
H916        H  0.43417295  0.04330140  0.04315100     0.08200
H917        H  0.44223899  0.01616386  0.07226318     0.08200
H918        H  0.48191163  0.00862831  0.84995023     0.08100
H919        H  0.49051671  0.98351146  0.88347800     0.08100
H920        H  0.51713088  0.02495903  0.88169083     0.04900
C921        C  0.71650051  0.31078453  0.77377366    -0.20900
C922        C  0.74388448  0.31033735  0.77843403    -0.07500
C923        C  0.74581509  0.28603811  0.75669072     0.13400
C924        C  0.72037960  0.26277406  0.73266539    -0.20900
C925        C  0.69244417  0.26228668  0.72922232    -0.07500
C926        C  0.69078598  0.28716979  0.74970059     0.13400
C927        C  0.66238302  0.28949023  0.74625978    -0.24300
H928        H  0.71495608  0.32943229  0.78989135     0.14700
H929        H  0.72239253  0.24426078  0.71710888     0.14700
C930        C  0.77455364  0.28407398  0.75794560    -0.24200
H931        H  0.66576523  0.31106845  0.76272489     0.04900
H932        H  0.64277686  0.26920404  0.76349714     0.08200
H933        H  0.65662757  0.29016827  0.71006043     0.08200
H934        H  0.77834402  0.27824401  0.79274675     0.08100
H935        H  0.79478912  0.30653149  0.74665298     0.08100
H936        H  0.77272538  0.26542100  0.73528747     0.04900
C937        C  0.71853711  0.25380796  0.24183347    -0.20900
C938        C  0.69362902  0.25797308  0.23242683    -0.07500
C939        C  0.69526028  0.28557265  0.24860756     0.13400
C940        C  0.72129517  0.30763773  0.27378841    -0.20900
C941        C  0.74581390  0.30296794  0.28390596    -0.07500
C942        C  0.74434841  0.27562006  0.26695998     0.13400
C943        C  0.76995799  0.26907323  0.27426803    -0.24300
H944        H  0.71777088  0.23288503  0.22986230     0.14700
H945        H  0.72227269  0.32856109  0.28625003     0.14700
C946        C  0.67015238  0.29245278  0.23893236    -0.24200
H947        H  0.76610607  0.24825404  0.25491243     0.04900
H948        H  0.77123413  0.26414728  0.31063109     0.08200
H949        H  0.79223689  0.28936849  0.26296377     0.08200
H950        H  0.64841456  0.27459400  0.25541044     0.08100
H951        H  0.66659030  0.29247941  0.20175409     0.08100
H952        H  0.67600914  0.31571749  0.25228174     0.04900
C953        C  0.83201727  0.38191382  0.62157024    -0.20900
C954        C  0.85927444  0.40370615  0.59901934    -0.07500
C955        C  0.87882146  0.43339815  0.61920699     0.13400
C956        C  0.87082995  0.44007067  0.66111261    -0.20900
C957        C  0.84507973  0.41739793  0.68508835    -0.07500
C958        C  0.82499617  0.38815789  0.66474439     0.13400
C959        C  0.79742407  0.36280048  0.68965790    -0.24300
H960        H  0.81658367  0.35940343  0.60596646     0.14700
H961        H  0.88638884  0.46230755  0.67742561     0.14700
C962        C  0.90840621  0.45825581  0.59792498    -0.24200
H963        H  0.78450874  0.34109570  0.66911525     0.04900
H964        H  0.78150653  0.37107803  0.69813397     0.08200
H965        H  0.80507421  0.35680225  0.72135568     0.08200
H966        H  0.90356903  0.46556605  0.56510850     0.08100
H967        H  0.92400084  0.44914192  0.59346781     0.08100
H968        H  0.92078667  0.47960854  0.61932226     0.04900
C969        C  0.85306721  0.37026772  0.12272820    -0.20900
C970        C  0.86749621  0.39922892  0.10039595    -0.07500
C971        C  0.87560748  0.42680589  0.12482257     0.13400
C972        C  0.86898137  0.42481987  0.17109132    -0.20900
C973        C  0.85412337  0.39589991  0.19333515    -0.07500
C974        C  0.84646416  0.36828072  0.16922569     0.13400
C975        C  0.82995879  0.33662976  0.19188465    -0.24300
H976        H  0.84574546  0.34909600  0.10332404     0.14700
H977        H  0.87546386  0.44596335  0.19008407     0.14700
C978        C  0.89010734  0.45825605  0.10171740    -0.24200
H979        H  0.82428988  0.31744161  0.16747052     0.04900
H980        H  0.80809099  0.33246218  0.20682777     0.08200
H981        H  0.84460552  0.33549283  0.21894813     0.08200
H982        H  0.87413996  0.45815331  0.07584926     0.08100
H983        H  0.91175614  0.46341908  0.08516370     0.08100
H984        H  0.89566410  0.47744883  0.12605828     0.04900
C985        C  0.28419850  0.68810610  0.52494904    -0.20900
C986        C  0.26350743  0.69463772  0.54725532    -0.07500
C987        C  0.26939000  0.72582473  0.54486841     0.13400
C988        C  0.29477048  0.74863902  0.52021461    -0.20900
C989        C  0.31488787  0.74194517  0.49740321    -0.07500
C990        C  0.30970361  0.71127452  0.50014916     0.13400
C991        C  0.33015672  0.70252777  0.47554944    -0.24300
H992        H  0.28029484  0.66460914  0.52643934     0.14700
H993        H  0.29888635  0.77223255  0.51837989     0.14700
C994        C  0.24899680  0.73580579  0.56694505    -0.24200
H995        H  0.32220143  0.67732286  0.47990787     0.04900
H996        H  0.35401975  0.71639475  0.48896695     0.08200
H997        H  0.33016963  0.70721638  0.43870887     0.08200
H998        H  0.24934834  0.73338733  0.60433573     0.08100
H999        H  0.22512556  0.72151782  0.55364282     0.08100
H1000       H  0.25684948  0.76073265  0.55990552     0.04900
C1001       C  0.04032542  0.49671552  0.82551249    -0.20900
C1002       C  0.04165041  0.48239412  0.78497382    -0.07500
C1003       C  0.02032464  0.44997926  0.77943794     0.13400
C1004       C  0.99698253  0.43382427  0.81218442    -0.20900
C1005       C  0.99347853  0.44924196  0.84981032    -0.07500
C1006       C  0.01675844  0.48075453  0.85771489     0.13400
C1007       C  0.01595329  0.49927357  0.89745058    -0.24300
H1008       H  0.05675203  0.52140480  0.83092095     0.14700
H1009       H  0.97902466  0.40978450  0.80545111     0.14700
C1010       C  0.02014493  0.43291498  0.73727010    -0.24200
H1011       H  0.03803231  0.50958087  0.91640492     0.04900
H1012       H  0.99726455  0.48485644  0.92166823     0.08200
H1013       H  0.01290193  0.51854988  0.88505535     0.08200
H1014       H  0.04218754  0.43337096  0.73461367     0.08100
H1015       H  0.01703192  0.44421265  0.70688191     0.08100
H1016       H  0.00115093  0.40799576  0.73764599     0.04900
C1017       C  0.97995327  0.53482874  0.53818260    -0.20900
C1018       C  0.97277571  0.50376841  0.53132420    -0.07500
C1019       C  0.98786813  0.49246278  0.56004427     0.13400
C1020       C  0.00820534  0.51181075  0.59431451    -0.20900
C1021       C  0.01659355  0.54310753  0.59916727    -0.07500
C1022       C  0.00212797  0.55473618  0.57068081     0.13400
C1023       C  0.00994201  0.58817898  0.57462440    -0.24300
H1024       H  0.96875235  0.54395253  0.51726016     0.14700
H1025       H  0.01992814  0.50319824  0.61509174     0.14700
C1026       C  0.98479858  0.46083177  0.55393111    -0.24200
H1027       H  0.99570897  0.59315242  0.55135246     0.04900
H1028       H  0.03445335  0.60452570  0.56589484     0.08200
H1029       H  0.00570080  0.59280208  0.60983995     0.08200
H1030       H  0.99157904  0.45878157  0.51894653     0.08100
H1031       H  0.96096953  0.44154864  0.56094171     0.08100
H1032       H  0.00000758  0.45743253  0.57742115     0.04900
C1033       C  0.26676672  0.72276012  0.05399244    -0.20900
C1034       C  0.25642500  0.69118073  0.04387946    -0.07500
C1035       C  0.27080924  0.68496431  0.00733725     0.13400
C1036       C  0.29490751  0.71017474  0.98303280    -0.20900
C1037       C  0.30420520  0.74141503  0.99260580    -0.07500
C1038       C  0.28989836  0.74767762  0.02861297     0.13400
C1039       C  0.29930624  0.78080097  0.04092454    -0.24300
H1040       H  0.25639153  0.72820387  0.08175560     0.14700
H1041       H  0.30573137  0.70544343  0.95508899     0.14700
C1042       C  0.26025387  0.65207456  0.99206822    -0.24200
H1043       H  0.28700435  0.78167956  0.07142285     0.04900
H1044       H  0.29392392  0.79188575  0.01258271     0.08200
H1045       H  0.32438471  0.79453379  0.04817786     0.08200
H1046       H  0.23543210  0.63968587  0.98288908     0.08100
H1047       H  0.26416744  0.63919576  0.01942922     0.08100
H1048       H  0.27306961  0.65185479  0.96176270     0.04900
C1049       C  0.00123593  0.47541067  0.35565719    -0.20900
C1050       C  0.98921745  0.44311168  0.35292325    -0.07500
C1051       C  0.00081322  0.43181394  0.31911923     0.13400
C1052       C  0.02231977  0.45273339  0.28722159    -0.20900
C1053       C  0.03275010  0.48497835  0.28760243    -0.07500
C1054       C  0.02214899  0.49640087  0.32338828     0.13400
C1055       C  0.03153865  0.53040076  0.32805497    -0.24300
H1056       H  0.99219933  0.48407412  0.38123649     0.14700
H1057       H  0.03047353  0.44345686  0.26124372     0.14700
C1058       C  0.99092712  0.39772572  0.31573352    -0.24200
H1059       H  0.02129534  0.53455446  0.35847540     0.04900
H1060       H  0.02343445  0.53780427  0.29821555     0.08200
H1061       H  0.05686367  0.54540076  0.33168293     0.08200
H1062       H  0.97888434  0.38805060  0.28295855     0.08100
H1063       H  0.97548650  0.38345314  0.34376010     0.08100
H1064       H  0.01155718  0.39543968  0.31731980     0.04900
C1065       C  0.12412892  0.56176734  0.87684276    -0.20900
C1066       C  0.14019333  0.59148473  0.85688898    -0.07500
C1067       C  0.16284879  0.61741440  0.88185371     0.13400
C1068       C  0.16828565  0.61303932  0.92691794    -0.20900
C1069       C  0.15190277  0.58334099  0.94686079    -0.07500
C1070       C  0.12998291  0.55728794  0.92151507     0.13400
C1071       C  0.11277256  0.52450810  0.94066392    -0.24300
H1072       H  0.10839374  0.54157388  0.85658816     0.14700
H1073       H  0.18431919  0.63313173  0.94716288     0.14700
C1074       C  0.18150620  0.64982719  0.86186799    -0.24200
H1075       H  0.11717288  0.50891426  0.91933109     0.04900
H1076       H  0.08769221  0.51556530  0.94058729     0.08200
H1077       H  0.11994443  0.52326071  0.97581537     0.08200
H1078       H  0.17465990  0.65106497  0.82651733     0.08100
H1079       H  0.20629643  0.65737429  0.86215993     0.08100
H1080       H  0.17827756  0.66651002  0.88249120     0.04900
C1081       C  0.14192878  0.61910553  0.38274147    -0.20900
C1082       C  0.12885372  0.58995220  0.36145178    -0.07500
C1083       C  0.12509290  0.56365201  0.38545186     0.13400
C1084       C  0.13570478  0.56746093  0.43004892    -0.20900
C1085       C  0.15004426  0.59690601  0.45075260    -0.07500
C1086       C  0.15264106  0.62298266  0.42740340     0.13400
C1087       C  0.16825170  0.65521407  0.44837361    -0.24300
H1088       H  0.14573968  0.63929807  0.36330771     0.14700
H1089       H  0.13284547  0.54740603  0.44886046     0.14700
C1090       C  0.11102386  0.53183803  0.36347946    -0.24200
H1091       H  0.17031917  0.67315437  0.42386447     0.04900
H1092       H  0.19181199  0.66206552  0.45981964     0.08200
H1093       H  0.15475187  0.65550235  0.47764655     0.08200
H1094       H  0.12501604  0.53286888  0.33406928     0.08100
H1095       H  0.08734172  0.52399301  0.35182263     0.08100
H1096       H  0.10971329  0.51393566  0.38738210     0.04900
C1097       C  0.97289884  0.53943516  0.04261199    -0.20900
C1098       C  0.96441502  0.50805254  0.03493457    -0.07500
C1099       C  0.97761553  0.49503359  0.06435358     0.13400
C1100       C  0.99921368  0.51384162  0.09779339    -0.20900
C1101       C  0.00944855  0.54562794  0.10250836    -0.07500
C1102       C  0.99545115  0.55835857  0.07533864     0.13400
C1103       C  0.00437611  0.59204084  0.08086218    -0.24300
H1104       H  0.96272564  0.54968764  0.02179055     0.14700
H1105       H  0.01025341  0.50421757  0.11811042     0.14700
C1106       C  0.97036243  0.46161736  0.06088796    -0.24200
H1107       H  0.99058349  0.59807854  0.05835344     0.04900
H1108       H  0.02901676  0.60790285  0.07235421     0.08200
H1109       H  0.00040581  0.59621847  0.11647367     0.08200
H1110       H  0.97796542  0.45775502  0.02757369     0.08100
H1111       H  0.94537562  0.44495361  0.06571486     0.08100
H1112       H  0.98250505  0.45599843  0.08722051     0.04900
C1113       C  0.44476672  0.71258842  0.84070163    -0.20900
C1114       C  0.42850284  0.69355467  0.80353271    -0.07500
C1115       C  0.40468179  0.69650217  0.78358771     0.13400
C1116       C  0.39803018  0.71846296  0.80098918    -0.20900
C1117       C  0.41431742  0.73776415  0.83800110    -0.07500
C1118       C  0.43777245  0.73441319  0.85854777     0.13400
C1119       C  0.45618059  0.75432477  0.89825146    -0.24300
H1120       H  0.46302538  0.71031583  0.85584801     0.14700
H1121       H  0.38012732  0.72088406  0.78477170     0.14700
C1122       C  0.38644697  0.67793522  0.74274427    -0.24200
H1123       H  0.47442562  0.74953632  0.90862272     0.04900
H1124       H  0.44076831  0.74912677  0.92775338     0.08200
H1125       H  0.46750112  0.77953820  0.88926593     0.08200
H1126       H  0.39268520  0.66097679  0.73069140     0.08100
H1127       H  0.39025737  0.69420102  0.71433166     0.08100
H1128       H  0.36157165  0.66485051  0.75122566     0.04900
C1129       C  0.31951975  0.60237232  0.71457181    -0.20900
C1130       C  0.33129717  0.59460438  0.67720266    -0.07500
C1131       C  0.31441887  0.58638501  0.63585481     0.13400
C1132       C  0.28654718  0.58612091  0.63349734    -0.20900
C1133       C  0.27477009  0.59401736  0.67095063    -0.07500
C1134       C  0.29206699  0.60276414  0.71206392     0.13400
C1135       C  0.28268077  0.61342395  0.75355401    -0.24300
H1136       H  0.33218635  0.60864104  0.74627948     0.14700
H1137       H  0.27367914  0.57931947  0.60195083     0.14700
C1138       C  0.32479004  0.57683892  0.59425297    -0.24200
H1139       H  0.30007721  0.62112124  0.78118272     0.04900
H1140       H  0.26075004  0.59390723  0.76728993     0.08200
H1141       H  0.28024620  0.63369280  0.74473949     0.08200
H1142       H  0.30764027  0.56913843  0.56628548     0.08100
H1143       H  0.34661331  0.59696566  0.58134830     0.08100
H1144       H  0.32804647  0.55700365  0.60255159     0.04900
C1145       C  0.39117299  0.70550253  0.33374938    -0.20900
C1146       C  0.41481473  0.72980815  0.35932846    -0.07500
C1147       C  0.44116412  0.72823998  0.37031785     0.13400
C1148       C  0.44414764  0.70367364  0.35265197    -0.20900
C1149       C  0.42104319  0.68007794  0.32531183    -0.07500
C1150       C  0.39373256  0.68052713  0.31718406     0.13400
C1151       C  0.36775536  0.65556577  0.28926851    -0.24300
H1152       H  0.37092406  0.70663337  0.32544163     0.14700
H1153       H  0.46493729  0.70322279  0.35941995     0.14700
C1154       C  0.46681165  0.75318234  0.39878187    -0.24200
H1155       H  0.34868128  0.66016182  0.28479468     0.04900
H1156       H  0.35826557  0.63270928  0.30679849     0.08200
H1157       H  0.37618304  0.65431189  0.25510605     0.08200
H1158       H  0.45794728  0.75344195  0.43301400     0.08100
H1159       H  0.47606738  0.77647048  0.38255633     0.08100
H1160       H  0.48607236  0.74885288  0.40300874     0.04900
C1161       C  0.27684134  0.57966939  0.14598895    -0.20900
C1162       C  0.26515830  0.58790679  0.18306281    -0.07500
C1163       C  0.28085213  0.59406099  0.22540832     0.13400
C1164       C  0.30728413  0.59178848  0.22892290    -0.20900
C1165       C  0.31956851  0.58469964  0.19145054    -0.07500
C1166       C  0.30358793  0.57800385  0.14939451     0.13400
C1167       C  0.31364534  0.56805979  0.10789838    -0.24300
H1168       H  0.26486279  0.57429493  0.11372806     0.14700
H1169       H  0.31868653  0.59598826  0.26140410     0.14700
C1170       C  0.27079668  0.60379836  0.26718228    -0.24200
H1171       H  0.29687901  0.56122231  0.07954567     0.04900
H1172       H  0.31567450  0.54745502  0.11609491     0.08200
H1173       H  0.33594039  0.58774534  0.09549165     0.08200
H1174       H  0.24785283  0.58455362  0.27838152     0.08100
H1175       H  0.27008608  0.62526711  0.25988481     0.08100
H1176       H  0.28692265  0.60923950  0.29607785     0.04900
C1177       C  0.42999318  0.57920964  0.98517534    -0.20900
C1178       C  0.45888755  0.59938352  0.00516618    -0.07500
C1179       C  0.48404376  0.61969008  0.97793917     0.13400
C1180       C  0.47947172  0.61969493  0.93109974    -0.20900
C1181       C  0.45038073  0.59968026  0.91087373    -0.07500
C1182       C  0.42529559  0.57908148  0.93850166     0.13400
C1183       C  0.39378919  0.55637308  0.91947669    -0.24300
H1184       H  0.41076386  0.56342499  0.00655511     0.14700
H1185       H  0.49890266  0.63550144  0.91010763     0.14700
C1186       C  0.51526330  0.64181896  0.99812385    -0.24200
H1187       H  0.37741303  0.54141969  0.94632180     0.04900
H1188       H  0.39536169  0.54065205  0.89447908     0.08200
H1189       H  0.38408414  0.56944773  0.90303285     0.08200
H1190       H  0.52411920  0.62827263  0.01553221     0.08100
H1191       H  0.51350972  0.65754292  0.02291300     0.08100
H1192       H  0.53222075  0.65661332  0.97177355     0.04900
C1193       C  0.45316088  0.57864622  0.49447578    -0.20900
C1194       C  0.46350417  0.60961467  0.50748900    -0.07500
C1195       C  0.45873394  0.62922927  0.47817007     0.13400
C1196       C  0.44557686  0.61784936  0.43532694    -0.20900
C1197       C  0.43754675  0.58769296  0.42134041    -0.07500
C1198       C  0.44070118  0.56757854  0.45154530     0.13400
C1199       C  0.43139499  0.53460228  0.43838906    -0.24300
H1200       H  0.45506695  0.56297742  0.51792744     0.14700
H1201       H  0.44358799  0.63329430  0.41143149     0.14700
C1202       C  0.46896868  0.66253880  0.49053251    -0.24200
H1203       H  0.43439310  0.52180770  0.46693906     0.04900
H1204       H  0.44573931  0.53494402  0.40988352     0.08200
H1205       H  0.40677902  0.52145296  0.42809038     0.08200
H1206       H  0.49390598  0.67560728  0.49900251     0.08100
H1207       H  0.45564175  0.66290789  0.51992458     0.08100
H1208       H  0.46525410  0.67495887  0.46218331     0.04900
C1209       C  0.55301022  0.29589926  0.08823287    -0.20900
C1210       C  0.57557432  0.31955526  0.06041929    -0.07500
C1211       C  0.60267876  0.31903935  0.05069512     0.13400
C1212       C  0.60569905  0.29421444  0.06695316    -0.20900
C1213       C  0.58285455  0.27018698  0.09373810    -0.07500
C1214       C  0.55650065  0.27144042  0.10540252     0.13400
C1215       C  0.53136686  0.24617722  0.13403315    -0.24300
H1216       H  0.53231061  0.29625861  0.09586955     0.14700
H1217       H  0.62577872  0.29308917  0.05775280     0.14700
C1218       C  0.62786877  0.34361513  0.02112199    -0.24200
H1219       H  0.51204354  0.25027642  0.13907704     0.04900
H1220       H  0.54071619  0.24565757  0.16790646     0.08200
H1221       H  0.52206691  0.22303854  0.11735914     0.08200
H1222       H  0.63854981  0.36688602  0.03778411     0.08100
H1223       H  0.61826237  0.34454218  0.98764800     0.08100
H1224       H  0.64647125  0.33856291  0.01505301     0.04900
C1225       C  0.70984970  0.39720642  0.88579152    -0.20900
C1226       C  0.73050292  0.40659511  0.92256704    -0.07500
C1227       C  0.72294423  0.41652325  0.96290039     0.13400
C1228       C  0.69546206  0.41700846  0.96492005    -0.20900
C1229       C  0.67479054  0.40786233  0.92797494    -0.07500
C1230       C  0.68229688  0.39753071  0.88778682     0.13400
C1231       C  0.66157659  0.38624131  0.84668732    -0.24300
H1232       H  0.71521490  0.38925228  0.85493727     0.14700
H1233       H  0.69032379  0.42497600  0.99593154     0.14700
C1234       C  0.74395376  0.42763680  0.00373554    -0.24200
H1235       H  0.67093431  0.37838617  0.81917736     0.04900
H1236       H  0.65908407  0.40548231  0.83262689     0.08200
H1237       H  0.63880037  0.36590874  0.85611353     0.08200
H1238       H  0.76703473  0.44742962  0.99402717     0.08100
H1239       H  0.74595557  0.40811204  0.01786282     0.08100
H1240       H  0.73507697  0.43601751  0.03121560     0.04900
C1241       C  0.57233952  0.54821390  0.80957548    -0.20900
C1242       C  0.55048479  0.51580196  0.80855016    -0.07500
C1243       C  0.52823773  0.50442668  0.77273728     0.13400
C1244       C  0.52677214  0.52575800  0.74275215    -0.20900
C1245       C  0.54646331  0.55824304  0.74734490    -0.07500
C1246       C  0.57051945  0.56942654  0.77980285     0.13400
C1247       C  0.59437785  0.60385263  0.78324696    -0.24300
H1248       H  0.59026282  0.55736571  0.83522085     0.14700
H1249       H  0.50841581  0.51705825  0.71777250     0.14700
C1250       C  0.50541226  0.46999052  0.76565107    -0.24200
H1251       H  0.61264384  0.60835053  0.80827388     0.04900
H1252       H  0.58369322  0.61731269  0.79423253     0.08200
H1253       H  0.60552200  0.61265084  0.74976015     0.08200
H1254       H  0.48910583  0.46038472  0.79447570     0.08100
H1255       H  0.51776493  0.45716944  0.76196722     0.08100
H1256       H  0.49141621  0.46563786  0.73444121     0.04900
C1257       C  0.43767228  0.46119314  0.06793110    -0.20900
C1258       C  0.45434801  0.49403459  0.06451976    -0.07500
C1259       C  0.47290153  0.50770569  0.02512126     0.13400
C1260       C  0.47661875  0.48859837  0.99359316    -0.20900
C1261       C  0.46245346  0.45615412  0.99993569    -0.07500
C1262       C  0.44113043  0.44223295  0.03610247     0.13400
C1263       C  0.42217835  0.40724422  0.04280163    -0.24300
H1264       H  0.42244434  0.45006599  0.09652246     0.14700
H1265       H  0.49286151  0.49947631  0.96602195     0.14700
C1266       C  0.48926021  0.54241133  0.01573101    -0.24200
H1267       H  0.39743485  0.39969693  0.04498687     0.04900
H1268       H  0.42919346  0.40083030  0.07480822     0.08200
H1269       H  0.42450791  0.39415289  0.01430001     0.08200
H1270       H  0.50766232  0.55557937  0.04122864     0.08100
H1271       H  0.47239482  0.55022671  0.01617069     0.08100
H1272       H  0.50041979  0.54834398  0.98189112     0.04900
C1273       C  0.61474449  0.29773493  0.57145734    -0.20900
C1274       C  0.58972471  0.27271020  0.59389299    -0.07500
C1275       C  0.56303072  0.27408017  0.60200851     0.13400
C1276       C  0.56140244  0.29968178  0.58542902    -0.20900
C1277       C  0.58618344  0.32451291  0.56211063    -0.07500
C1278       C  0.61359453  0.32388890  0.55622368     0.13400
C1279       C  0.64121521  0.34993249  0.53215000    -0.24300
H1280       H  0.63514228  0.29651236  0.56515549     0.14700
H1281       H  0.54048165  0.30017244  0.59026437     0.14700
C1282       C  0.53575472  0.24795499  0.62644868    -0.24200
H1283       H  0.66005205  0.34490024  0.52889742     0.04900
H1284       H  0.65047153  0.37207094  0.55155445     0.08200
H1285       H  0.63460847  0.35311788  0.49750753     0.08200
H1286       H  0.54257312  0.24572787  0.66142794     0.08100
H1287       H  0.52724989  0.22552168  0.60807213     0.08100
H1288       H  0.51648508  0.25238524  0.62890051     0.04900
C1289       C  0.69128613  0.40451391  0.39876060    -0.20900
C1290       C  0.68953622  0.41867375  0.43912986    -0.07500
C1291       C  0.71420468  0.42945723  0.47065074     0.13400
C1292       C  0.73934863  0.42579730  0.46083418    -0.20900
C1293       C  0.74103715  0.41171926  0.42040191    -0.07500
C1294       C  0.71642116  0.40088609  0.38897957     0.13400
C1295       C  0.71574920  0.38454085  0.34563490    -0.24300
H1296       H  0.67253851  0.39575782  0.37448744     0.14700
H1297       H  0.75811174  0.43433219  0.48507704     0.14700
C1298       C  0.71487247  0.44547661  0.51430370    -0.24200
H1299       H  0.69389145  0.37597106  0.32656651     0.04900
H1300       H  0.71792387  0.36396706  0.35343821     0.08200
H1301       H  0.73481254  0.40098509  0.32311163     0.08200
H1302       H  0.69563587  0.42894746  0.53649222     0.08100
H1303       H  0.71301962  0.46628443  0.50690007     0.08100
H1304       H  0.73660120  0.45363562  0.53355321     0.04900
C1305       C  0.56353609  0.43774563  0.74196995    -0.20900
C1306       C  0.54698459  0.40632590  0.75596999    -0.07500
C1307       C  0.54534810  0.38289126  0.72710993     0.13400
C1308       C  0.55932545  0.39146981  0.68421675    -0.20900
C1309       C  0.57464846  0.42276927  0.66962065    -0.07500
C1310       C  0.57726842  0.44624091  0.69922128     0.13400
C1311       C  0.59372854  0.48039307  0.68617463    -0.24300
H1312       H  0.56580608  0.45595162  0.76455861     0.14700
H1313       H  0.55641528  0.37341863  0.66073049     0.14700
C1314       C  0.52729548  0.34873647  0.74005759    -0.24200
H1315       H  0.57717518  0.48866874  0.68613437     0.04900
H1316       H  0.60458209  0.48491677  0.65224618     0.08200
H1317       H  0.61225363  0.49432145  0.71123537     0.08200
H1318       H  0.50318268  0.34170667  0.74806190     0.08100
H1319       H  0.53792163  0.34446822  0.76997322     0.08100
H1320       H  0.52671740  0.33351807  0.71215009     0.04900
C1321       C  0.54205295  0.39119163  0.22819491    -0.20900
C1322       C  0.55643485  0.41986578  0.25127853    -0.07500
C1323       C  0.57746576  0.44778450  0.22825382     0.13400
C1324       C  0.58316243  0.44641727  0.18242277    -0.20900
C1325       C  0.56827373  0.41799471  0.15915247    -0.07500
C1326       C  0.54754832  0.38998485  0.18194892     0.13400
C1327       C  0.53162418  0.35898699  0.15748598    -0.24300
H1328       H  0.52718447  0.36972629  0.24664546     0.14700
H1329       H  0.59831151  0.46793373  0.16420070     0.14700
C1330       C  0.59445661  0.47943771  0.25084514    -0.24200
H1331       H  0.51672239  0.33930899  0.18063789     0.04900
H1332       H  0.54909120  0.35447370  0.14278854     0.08200
H1333       H  0.51693964  0.35936298  0.12981875     0.08200
H1334       H  0.61961427  0.48865659  0.25020671     0.08100
H1335       H  0.58733711  0.47878122  0.28631424     0.08100
H1336       H  0.58977982  0.49595094  0.23227457     0.04900
C1337       C  0.56639355  0.57305376  0.29102220    -0.20900
C1338       C  0.54560051  0.55717787  0.25500370    -0.07500
C1339       C  0.53569141  0.52527130  0.24817735     0.13400
C1340       C  0.54427271  0.50965108  0.27964244    -0.20900
C1341       C  0.56244375  0.52473775  0.31847486    -0.07500
C1342       C  0.57482200  0.55741817  0.32270398     0.13400
C1343       C  0.59522759  0.57571240  0.36204238    -0.24300
H1344       H  0.57432554  0.59758689  0.29647700     0.14700
H1345       H  0.53536603  0.48485602  0.27493482     0.14700
C1346       C  0.51424357  0.50688921  0.20975260    -0.24200
H1347       H  0.60209559  0.60077300  0.36068369     0.04900
H1348       H  0.61659660  0.57474327  0.36143717     0.08200
H1349       H  0.58285540  0.56582050  0.39443798     0.08200
H1350       H  0.52510465  0.51788777  0.17688399     0.08100
H1351       H  0.49217396  0.50631209  0.21330900     0.08100
H1352       H  0.50888949  0.48229523  0.20920926     0.04900
C1353       C  0.49645555  0.50098043  0.49459407    -0.20900
C1354       C  0.47806675  0.46834390  0.49848593    -0.07500
C1355       C  0.45340447  0.45562458  0.52983931     0.13400
C1356       C  0.44946166  0.47567360  0.55885349    -0.20900
C1357       C  0.47014089  0.50830243  0.55888938    -0.07500
C1358       C  0.49341436  0.52114619  0.52468199     0.13400
C1359       C  0.51627608  0.55583808  0.52004136    -0.24300
H1360       H  0.51543869  0.51074286  0.47078689     0.14700
H1361       H  0.43103328  0.46542211  0.58351569     0.14700
C1362       C  0.43142435  0.42073616  0.53355535    -0.24200
H1363       H  0.53151297  0.56120377  0.49020072     0.04900
H1364       H  0.53145138  0.56467370  0.55035788     0.08200
H1365       H  0.50406412  0.56871812  0.51540964     0.08200
H1366       H  0.44337246  0.40899946  0.54689792     0.08100
H1367       H  0.42147534  0.41100696  0.49969455     0.08100
H1368       H  0.41210220  0.41502127  0.55695190     0.04900
loop_ 
_geom_bond_atom_site_label_1 
_geom_bond_atom_site_label_2 
_geom_bond_distance 
_geom_bond_site_symmetry_2 
_ccdc_geom_bond_type 
Zr1           O2   2.435       .  S
Zr1           O3   2.442       .  S
Zr1           O4   2.453       .  S
Zr1           O7   2.453       .  S
Zr1           O9   2.378       .  S
Zr1          O10   2.379       .  S
Zr1          O11   2.423       .  S
Zr1          O12   2.415       .  S
O2           H58   0.990       .  S
O2           H66   0.990       .  S
O3           C23   1.286       .  A
O4           C25   1.288       .  A
O5          Zr15   2.433       .  S
O5           C24   1.286       .  A
O6          Zr14   2.389       .  S
O6           C25   1.276       .  A
O7           C24   1.289       .  A
O8          Zr16   2.444       .  S
O8           C23   1.286       .  A
O9          Zr14   2.378       .  S
O9          Zr16   2.366       .  S
O10         Zr15   2.362       .  S
O10         Zr16   2.372       .  S
O10          H45   0.966       .  S
O11         Zr14   2.394       .  S
O11         Zr31   2.429       .  S
O11          H48   0.966       .  S
O12         Zr15   2.383       .  S
O12         Zr31   2.423       .  S
Zr13         O38   2.435       .  S
Zr13         O32   2.419       .  S
Zr13         O40   2.448       .  S
Zr13         O28   2.491       .  S
Zr13         O19   2.421       .  S
Zr13         O20   2.413       .  S
Zr13         O21   2.374       .  S
Zr13         O22   2.386       .  S
Zr14         O33   2.438       .  S
Zr14         O26   2.434       .  S
Zr14         O27   2.396       .  S
Zr14         O20   2.398       .  S
Zr14         O21   2.384       .  S
Zr15         O17   2.436       .  S
Zr15         O39   2.436       .  S
Zr15         O41   2.387       .  S
Zr15         O19   2.399       .  S
Zr15         O22   2.380       .  S
Zr16         O42   2.435       .  S
Zr16         O43   2.435       .  S
Zr16         O18   2.438       .  S
Zr16         O19   2.399       .  S
Zr16         O20   2.404       .  S
O17          H54   0.990       .  S
O18          H49   0.991       .  S
O18          H63   0.990       .  S
O20          H46   0.966       .  S
O21         Zr31   2.363       .  S
O22         Zr31   2.347       .  S
O22          H47   0.961       .  S
C23        C1277   1.490       .  S
C24        C1290   1.506       .  S
C25        C1309   1.466       .  S
O26          H62   0.990       .  S
O27          C29   1.269       .  A
O28          C29   1.292       .  A
C29        C1354   1.490       .  S
O30         Zr31   2.437       .  S
O30          H59   0.990       .  S
Zr31         O34   2.437       .  S
Zr31         O35   2.438       .  S
Zr31         O36   2.508       .  S
O32          C37   1.283       .  A
O33          H50   0.989       .  S
O33          H65   0.989       .  S
O34          H51   0.990       .  S
O35          H55   0.990       .  S
O35          H64   0.990       .  S
O36          C37   1.299       .  A
C37        C1341   1.515       .  S
O38          H57   0.990       .  S
O38          H61   0.990       .  S
O39          H53   0.990       .  S
O39          H60   0.990       .  S
O40          C44   1.289       .  A
O41          C44   1.276       .  A
O42          H52   0.990       .  S
O43          H56   0.990       .  S
C44        C1322   1.453       .  S
Zr67         O68   2.436       .  S
Zr67         O69   2.430       .  S
Zr67         O70   2.439       .  S
Zr67         O73   2.426   1_554  S
Zr67         O75   2.373       .  S
Zr67         O76   2.382   1_554  S
Zr67         O77   2.410       .  S
Zr67         O78   2.408   1_554  S
O68         H124   0.990       .  S
O68         H132   0.990       .  S
O69          C89   1.284       .  A
O70          C91   1.284       .  A
O71         Zr81   2.456       .  S
O71          C90   1.287       .  A
O72         Zr80   2.388       .  S
O72          C91   1.275       .  A
O73          C90   1.285       .  A
O74         Zr82   2.457   1_554  S
O74          C89   1.289       .  A
O75         Zr80   2.380       .  S
O75         Zr82   2.359   1_554  S
O76         Zr81   2.372       .  S
O76         Zr82   2.375       .  S
O76         H111   0.966       .  S
O77         Zr80   2.391       .  S
O77         Zr97   2.423   1_554  S
O77         H114   0.966       .  S
O78         Zr81   2.390       .  S
O78         Zr97   2.418       .  S
Zr79        O104   2.433       .  S
Zr79         O98   2.437       .  S
Zr79        O106   2.438       .  S
Zr79         O94   2.506       .  S
Zr79         O85   2.434       .  S
Zr79         O86   2.416       .  S
Zr79         O87   2.370       .  S
Zr79         O88   2.408       .  S
Zr80         O99   2.438       .  S
Zr80         O92   2.442       .  S
Zr80         O93   2.389       .  S
Zr80         O86   2.407   1_554  S
Zr80         O87   2.382   1_554  S
Zr81         O83   2.435       .  S
Zr81        O105   2.436       .  S
Zr81        O107   2.408       .  S
Zr81         O85   2.403       .  S
Zr81         O88   2.394       .  S
Zr82        O108   2.435       .  S
Zr82        O109   2.434       .  S
Zr82         O84   2.437   1_556  S
Zr82         O85   2.394       .  S
Zr82         O86   2.412       .  S
O83         H120   0.989       .  S
O84         H115   0.990       .  S
O84         H129   0.990       .  S
O86         H112   0.966       .  S
O87         Zr97   2.372       .  S
O88         Zr97   2.357       .  S
O88         H113   0.964       .  S
C89        C1210   1.492       .  S
C90        C1229   1.508       .  S
C91        C1325   1.450       .  S
O92         H128   0.990       .  S
O93          C95   1.268   1_554  A
O94          C95   1.294       .  A
C95        C1261   1.496       .  S
O96         Zr97   2.438       .  S
O96         H125   0.991       .  S
Zr97        O100   2.438       .  S
Zr97        O101   2.438       .  S
Zr97        O102   2.478       .  S
O98         C103   1.285       .  A
O99         H116   0.990       .  S
O99         H131   0.990       .  S
O100        H117   0.990       .  S
O101        H121   0.990       .  S
O101        H130   0.990       .  S
O102        C103   1.293       .  A
C103       C1242   1.514       .  S
O104        H123   0.990       .  S
O104        H127   0.990       .  S
O105        H119   0.990       .  S
O105        H126   0.990       .  S
O106        C110   1.282       .  A
O107        C110   1.271       .  A
O108        H118   0.990       .  S
O109        H122   0.990       .  S
C110       C1306   1.476       .  S
Zr133       O134   2.436       .  S
Zr133       O135   2.444       .  S
Zr133       O136   2.436       .  S
Zr133       O139   2.447       .  S
Zr133       O141   2.378       .  S
Zr133       O142   2.374       .  S
Zr133       O143   2.423       .  S
Zr133       O144   2.408       .  S
O134        H190   0.990       .  S
O134        H198   0.990       .  S
O135        C155   1.287       .  A
O136        C157   1.284       .  A
O137       Zr147   2.424       .  S
O137        C156   1.282       .  A
O138       Zr146   2.396       .  S
O138        C157   1.277       .  A
O139        C156   1.289       .  A
O140       Zr148   2.447       .  S
O140        C155   1.287       .  A
O141       Zr146   2.380       .  S
O141       Zr148   2.364       .  S
O142       Zr147   2.362       .  S
O142       Zr148   2.368       .  S
O142        H177   0.966       .  S
O143       Zr146   2.392       .  S
O143       Zr163   2.428       .  S
O143        H180   0.966       .  S
O144       Zr147   2.381       .  S
O144       Zr163   2.416       .  S
Zr145       O170   2.435       .  S
Zr145       O164   2.426       .  S
Zr145       O172   2.454       .  S
Zr145       O160   2.512       .  S
Zr145       O151   2.430       .  S
Zr145       O152   2.408       .  S
Zr145       O153   2.377       .  S
Zr145       O154   2.391       .  S
Zr146       O165   2.434       .  S
Zr146       O158   2.437       .  S
Zr146       O159   2.390       .  S
Zr146       O152   2.407       .  S
Zr146       O153   2.385       .  S
Zr147       O149   2.435       .  S
Zr147       O171   2.438       .  S
Zr147       O173   2.378       .  S
Zr147       O151   2.399       .  S
Zr147       O154   2.382       .  S
Zr148       O174   2.436       .  S
Zr148       O175   2.435       .  S
Zr148       O150   2.437       .  S
Zr148       O151   2.401       .  S
Zr148       O152   2.399       .  S
O149        H186   0.991       .  S
O150        H181   0.990       .  S
O150        H195   0.990       .  S
O152        H178   0.965       .  S
O153       Zr163   2.371       .  S
O154       Zr163   2.354       .  S
O154        H179   0.965       .  S
C155       C1149   1.492       .  S
C156       C1165   1.498       .  S
C157       C1197   1.460       .  S
O158        H194   0.991       .  S
O159        C161   1.268       .  A
O160        C161   1.296       .  A
C161       C1338   1.504       .  S
O162       Zr163   2.438       .  S
O162        H191   0.991       .  S
Zr163       O166   2.438       .  S
Zr163       O167   2.440       .  S
Zr163       O168   2.484       .  S
O164        C169   1.282       .  A
O165        H182   0.990       .  S
O165        H197   0.990       .  S
O166        H183   0.990       .  S
O167        H187   0.990       .  S
O167        H196   0.990       .  S
O168        C169   1.294       .  A
C169       C1258   1.509       .  S
O170        H189   0.990       .  S
O170        H193   0.990       .  S
O171        H185   0.990       .  S
O171        H192   0.990       .  S
O172        C176   1.290       .  A
O173        C176   1.276       .  A
O174        H184   0.990       .  S
O175        H188   0.991       .  S
C176       C1178   1.464       .  S
Zr199       O200   2.437       .  S
Zr199       O201   2.436       .  S
Zr199       O202   2.456       .  S
Zr199       O205   2.442       .  S
Zr199       O207   2.375       .  S
Zr199       O208   2.382       .  S
Zr199       O209   2.414       .  S
Zr199       O210   2.403       .  S
O200        H256   0.990       .  S
O200        H264   0.991       .  S
O201        C221   1.285       .  A
O202        C223   1.287       .  A
O203       Zr213   2.429       .  S
O203        C222   1.282       .  A
O204       Zr212   2.383       .  S
O204        C223   1.274       .  A
O205        C222   1.289       .  A
O206       Zr214   2.453       .  S
O206        C221   1.287       .  A
O207       Zr212   2.386       .  S
O207       Zr214   2.357       .  S
O208       Zr213   2.369       .  S
O208       Zr214   2.377       .  S
O208        H243   0.965       .  S
O209       Zr212   2.400       .  S
O209       Zr229   2.425       .  S
O209        H246   0.966       .  S
O210       Zr213   2.391       .  S
O210       Zr229   2.409       .  S
Zr211       O236   2.434       .  S
Zr211       O230   2.416       .  S
Zr211       O238   2.425       .  S
Zr211       O226   2.487       .  S
Zr211       O217   2.426       .  S
Zr211       O218   2.411       .  S
Zr211       O219   2.369       .  S
Zr211       O220   2.406       .  S
Zr212       O231   2.437       .  S
Zr212       O224   2.438       .  S
Zr212       O225   2.403       .  S
Zr212       O218   2.406       .  S
Zr212       O219   2.377       .  S
Zr213       O215   2.437       .  S
Zr213       O237   2.439       .  S
Zr213       O239   2.402       .  S
Zr213       O217   2.401       .  S
Zr213       O220   2.383       .  S
Zr214       O240   2.435       .  S
Zr214       O241   2.434       .  S
Zr214       O216   2.437       .  S
Zr214       O217   2.393       .  S
Zr214       O218   2.417       .  S
O215        H252   0.990       .  S
O216        H247   0.989       .  S
O216        H261   0.990       .  S
O218        H244   0.966       .  S
O219       Zr229   2.366       .  S
O220       Zr229   2.359       .  S
O220        H245   0.964       .  S
C221       C1114   1.482       .  S
C222       C1130   1.497       .  S
C223       C1181   1.476       .  S
O224        H260   0.990       .  S
O225        C227   1.269       .  A
O226        C227   1.290       .  A
C227       C1245   1.495       .  S
O228       Zr229   2.439       .  S
O228        H257   0.991       .  S
Zr229       O232   2.439       .  S
Zr229       O233   2.439       .  S
Zr229       O234   2.481       .  S
O230        C235   1.281       .  A
O231        H248   0.991       .  S
O231        H263   0.990       .  S
O232        H249   0.990       .  S
O233        H253   0.989       .  S
O233        H262   0.991       .  S
O234        C235   1.295       .  A
C235       C1357   1.508       .  S
O236        H255   0.990       .  S
O236        H259   0.990       .  S
O237        H251   0.990       .  S
O237        H258   0.990       .  S
O238        C242   1.281       .  A
O239        C242   1.271       .  A
O240        H250   0.989       .  S
O241        H254   0.990       .  S
C242       C1194   1.471       .  S
Zr265       O266   2.434       .  S
Zr265       O267   2.408       .  S
Zr265       O268   2.503       .  S
Zr265       O271   2.438       .  S
Zr265       O273   2.371       .  S
Zr265       O274   2.393       .  S
Zr265       O275   2.404       .  S
Zr265       O276   2.423       .  S
O266        H322   0.990       .  S
O266        H330   0.990       .  S
O267        C287   1.279       .  A
O268        C289   1.294       .  A
O269       Zr279   2.384       .  S
O269        C288   1.276       .  A
O270       Zr278   2.400       .  S
O270        C289   1.268       .  A
O271        C288   1.286       .  A
O272       Zr280   2.492       .  S
O272        C287   1.296       .  A
O273       Zr278   2.384       .  S
O273       Zr280   2.370       .  S
O274       Zr279   2.379       .  S
O274       Zr280   2.352       .  S
O274        H309   0.964       .  S
O275       Zr278   2.393       .  S
O275       Zr295   2.403       .  S
O275        H312   0.966       .  S
O276       Zr279   2.398       .  S
O276       Zr295   2.397       .  S
Zr277       O302   2.438       .  S
Zr277       O296   2.450       .  S
Zr277       O304   2.444       .  S
Zr277       O292   2.424       .  S
Zr277       O283   2.408       .  S
Zr277       O284   2.420       .  S
Zr277       O285   2.376       .  S
Zr277       O286   2.376       .  S
Zr278       O297   2.438       .  S
Zr278       O290   2.435       .  S
Zr278       O291   2.370       .  S
Zr278       O284   2.394       .  S
Zr278       O285   2.378       .  S
Zr279       O281   2.434       .  S
Zr279       O303   2.438       .  S
Zr279       O305   2.419       .  S
Zr279       O283   2.380       .  S
Zr279       O286   2.373       .  S
Zr280       O306   2.436       .  S
Zr280       O307   2.435       .  S
Zr280       O282   2.438       .  S
Zr280       O283   2.418       .  S
Zr280       O284   2.421       .  S
O281        H318   0.991       .  S
O282        H313   0.990       .  S
O282        H327   0.988       .  S
O284        H310   0.966       .  S
O285       Zr295   2.362       .  S
O286       Zr295   2.377       .  S
O286        H311   0.966       .  S
C287       C1053   1.511       .  S
C288       C1082   1.449       .  S
C289       C1101   1.494       .  S
O290        H326   0.990       .  S
O291        C293   1.273   1_554  A
O292        C293   1.282   1_554  A
C293       C1069   1.444       .  S
O294       Zr295   2.439       .  S
O294        H323   0.991       .  S
Zr295       O298   2.437       .  S
Zr295       O299   2.439       .  S
Zr295       O300   2.439       .  S
O296        C301   1.287       .  A
O297        H314   0.990       .  S
O297        H329   0.989       .  S
O298        H315   0.990       .  S
O299        H319   0.989       .  S
O299        H328   0.990       .  S
O300        C301   1.287       .  A
C301       C1034   1.509       .  S
O302        H321   0.990       .  S
O302        H325   0.991       .  S
O303        H317   0.990       .  S
O303        H324   0.989       .  S
O304        C308   1.288       .  A
O305        C308   1.280       .  A
O306        H316   0.990       .  S
O307        H320   0.990       .  S
C308       C1162   1.499       .  S
Zr331       O332   2.434       .  S
Zr331       O333   2.410       .  S
Zr331       O334   2.501       .  S
Zr331       O337   2.438       .  S
Zr331       O339   2.372       .  S
Zr331       O340   2.393       .  S
Zr331       O341   2.403       .  S
Zr331       O342   2.418       .  S
O332        H388   0.990       .  S
O332        H396   0.990       .  S
O333        C353   1.282       .  A
O334        C355   1.293       .  A
O335       Zr345   2.376       .  S
O335        C354   1.275       .  A
O336       Zr344   2.402       .  S
O336        C355   1.267       .  A
O337        C354   1.288       .  A
O338       Zr346   2.506       .  S
O338        C353   1.298       .  A
O339       Zr344   2.390       .  S
O339       Zr346   2.368       .  S
O340       Zr345   2.382       .  S
O340       Zr346   2.356       .  S
O340        H375   0.964       .  S
O341       Zr344   2.408       .  S
O341       Zr361   2.408       .  S
O341        H378   0.966       .  S
O342       Zr345   2.398       .  S
O342       Zr361   2.386       .  S
Zr343       O368   2.441       .  S
Zr343       O362   2.447       .  S
Zr343       O370   2.449       .  S
Zr343       O358   2.440       .  S
Zr343       O349   2.411       .  S
Zr343       O350   2.434       .  S
Zr343       O351   2.382       .  S
Zr343       O352   2.380       .  S
Zr344       O363   2.440       .  S
Zr344       O356   2.438       .  S
Zr344       O357   2.395       .  S
Zr344       O350   2.407       .  S
Zr344       O351   2.380       .  S
Zr345       O347   2.434       .  S
Zr345       O369   2.438       .  S
Zr345       O371   2.425       .  S
Zr345       O349   2.379       .  S
Zr345       O352   2.364       .  S
Zr346       O372   2.435       .  S
Zr346       O373   2.436       .  S
Zr346       O348   2.437       .  S
Zr346       O349   2.419       .  S
Zr346       O350   2.429       .  S
O347        H384   0.990       .  S
O348        H379   0.990       .  S
O348        H393   0.990       .  S
O350        H376   0.966       .  S
O351       Zr361   2.346       .  S
O352       Zr361   2.376       .  S
O352        H377   0.966       .  S
C353       C1002   1.508       .  S
C354       C1066   1.447       .  S
C355       C1021   1.497       .  S
O356        H392   0.989       .  S
O357        C359   1.269       .  A
O358        C359   1.280       .  A
C359       C1085   1.457       .  S
O360       Zr361   2.438       .  S
O360        H389   0.991       .  S
Zr361       O364   2.437       .  S
Zr361       O365   2.437       .  S
Zr361       O366   2.438       .  S
O362        C367   1.288       .  A
O363        H380   0.990       .  S
O363        H395   0.990       .  S
O364        H381   0.991       .  S
O365        H385   0.989       .  S
O365        H394   0.990       .  S
O366        C367   1.285       .  A
C367        C986   1.508       .  S
O368        H387   0.991       .  S
O368        H391   0.989       .  S
O369        H383   0.990       .  S
O369        H390   0.990       .  S
O370        C374   1.288       .  A
O371        C374   1.281       .  A
O372        H382   0.990       .  S
O373        H386   0.991       .  S
C374       C1133   1.503       .  S
Zr397       O398   2.433       .  S
Zr397       O399   2.395       .  S
Zr397       O400   2.478       .  S
Zr397       O403   2.448       .  S
Zr397       O405   2.377       .  S
Zr397       O406   2.397       .  S
Zr397       O407   2.414       .  S
Zr397       O408   2.418       .  S
O398        H454   0.990       .  S
O398        H462   0.991       .  S
O399        C419   1.276       .  A
O400        C421   1.288       .  A
O401       Zr411   2.400       .  S
O401        C420   1.272       .  A
O402       Zr410   2.403       .  S
O402        C421   1.268       .  A
O403        C420   1.283       .  A
O404       Zr412   2.509       .  S
O404        C419   1.299       .  A
O405       Zr410   2.389       .  S
O405       Zr412   2.366       .  S
O406       Zr411   2.384       .  S
O406       Zr412   2.349       .  S
O406        H441   0.961       .  S
O407       Zr410   2.414       .  S
O407       Zr427   2.409       .  S
O407        H444   0.966       .  S
O408       Zr411   2.396       .  S
O408       Zr427   2.385       .  S
Zr409       O434   2.441       .  S
Zr409       O428   2.449       .  S
Zr409       O436   2.458       .  S
Zr409       O424   2.457       .  S
Zr409       O415   2.410       .  S
Zr409       O416   2.425       .  S
Zr409       O417   2.376       .  S
Zr409       O418   2.383       .  S
Zr410       O429   2.442       .  S
Zr410       O422   2.438       .  S
Zr410       O423   2.400       .  S
Zr410       O416   2.404       .  S
Zr410       O417   2.378       .  S
Zr411       O413   2.435       .  S
Zr411       O435   2.438       .  S
Zr411       O437   2.423       .  S
Zr411       O415   2.389       .  S
Zr411       O418   2.376       .  S
Zr412       O438   2.437       .  S
Zr412       O439   2.437       .  S
Zr412       O414   2.437       .  S
Zr412       O415   2.419       .  S
Zr412       O416   2.433       .  S
O413        H450   0.990       .  S
O414        H445   0.991       .  S
O414        H459   0.989       .  S
O416        H442   0.966       .  S
O417       Zr427   2.358       .  S
O418       Zr427   2.381       .  S
O418        H443   0.966       .  S
C419       C1018   1.518       .  S
C420        C954   1.481       .  S
C421       C1050   1.490       .  S
O422        H458   0.990       .  S
O423        C425   1.272       .  A
O424        C425   1.286       .  A
C425        C973   1.466       .  S
O426       Zr427   2.441       .  S
O426        H455   0.991       .  S
Zr427       O430   2.439       .  S
Zr427       O431   2.438       .  S
Zr427       O432   2.439       .  S
O428        C433   1.288       .  A
O429        H446   0.990       .  S
O429        H461   0.990       .  S
O430        H447   0.990       .  S
O431        H451   0.989       .  S
O431        H460   0.991       .  S
O432        C433   1.286       .  A
C433        C941   1.500       .  S
O434        H453   0.991       .  S
O434        H457   0.989       .  S
O435        H449   0.989       .  S
O435        H456   0.990       .  S
O436        C440   1.289       .  A
O437        C440   1.283       .  A
O438        H448   0.990       .  S
O439        H452   0.990       .  S
C440       C1293   1.500       .  S
Zr463       O464   2.434       .  S
Zr463       O465   2.403       .  S
Zr463       O466   2.515       .  S
Zr463       O469   2.450   1_556  S
Zr463       O471   2.369       .  S
Zr463       O472   2.397       .  S
Zr463       O473   2.392       .  S
Zr463       O474   2.419       .  S
O464        H520   0.990       .  S
O464        H528   0.990       .  S
O465        C485   1.277       .  A
O466        C487   1.301       .  A
O467       Zr477   2.400   1_554  S
O467        C486   1.278       .  A
O468       Zr476   2.366       .  S
O468        C487   1.272       .  A
O469        C486   1.289       .  A
O470       Zr478   2.508       .  S
O470        C485   1.299       .  A
O471       Zr476   2.378       .  S
O471       Zr478   2.366       .  S
O472       Zr477   2.387       .  S
O472       Zr478   2.355       .  S
O472        H507   0.964       .  S
O473       Zr476   2.388       .  S
O473       Zr493   2.398       .  S
O473        H510   0.966       .  S
O474       Zr477   2.400       .  S
O474       Zr493   2.387       .  S
Zr475       O500   2.439       .  S
Zr475       O494   2.459       .  S
Zr475       O502   2.425       .  S
Zr475       O490   2.445       .  S
Zr475       O481   2.417       .  S
Zr475       O482   2.420       .  S
Zr475       O483   2.366       .  S
Zr475       O484   2.380       .  S
Zr476       O495   2.440       .  S
Zr476       O488   2.436       .  S
Zr476       O489   2.367       .  S
Zr476       O482   2.380       .  S
Zr476       O483   2.370       .  S
Zr477       O479   2.434       .  S
Zr477       O501   2.440   1_556  S
Zr477       O503   2.448       .  S
Zr477       O481   2.382       .  S
Zr477       O484   2.369       .  S
Zr478       O504   2.435       .  S
Zr478       O505   2.437       .  S
Zr478       O480   2.439       .  S
Zr478       O481   2.422       .  S
Zr478       O482   2.430       .  S
O479        H516   0.991   1_556  S
O480        H511   0.991       .  S
O480        H525   0.990       .  S
O482        H508   0.966       .  S
O483       Zr493   2.365       .  S
O484       Zr493   2.380       .  S
O484        H509   0.966       .  S
C485       C1098   1.520   1_556  S
C486        C970   1.461       .  S
C487       C1005   1.493       .  S
O488        H524   0.990       .  S
O489        C491   1.274       .  A
O490        C491   1.285       .  A
C491        C957   1.464       .  S
O492       Zr493   2.439       .  S
O492        H521   0.990       .  S
Zr493       O496   2.436       .  S
Zr493       O497   2.441       .  S
Zr493       O498   2.415       .  S
O494        C499   1.290       .  A
O495        H512   0.990       .  S
O495        H527   0.990       .  S
O496        H513   0.989       .  S
O497        H517   0.991       .  S
O497        H526   0.989       .  S
O498        C499   1.280       .  A
C499        C922   1.496       .  S
O500        H519   0.991       .  S
O500        H523   0.990       .  S
O501        H515   0.990       .  S
O501        H522   0.989       .  S
O502        C506   1.285       .  A
O503        C506   1.287       .  A
O504        H514   0.991       .  S
O505        H518   0.991       .  S
C506       C1226   1.499       .  S
Zr529       O530   2.434       .  S
Zr529       O531   2.402       .  S
Zr529       O532   2.498       .  S
Zr529       O535   2.451   1_554  S
Zr529       O537   2.375       .  S
Zr529       O538   2.393       .  S
Zr529       O539   2.401       .  S
Zr529       O540   2.419       .  S
O530        H586   0.991       .  S
O530        H594   0.991       .  S
O531        C551   1.280       .  A
O532        C553   1.293       .  A
O533       Zr543   2.386   1_556  S
O533        C552   1.277       .  A
O534       Zr542   2.399       .  S
O534        C553   1.270       .  A
O535        C552   1.290       .  A
O536       Zr544   2.493       .  S
O536        C551   1.295       .  A
O537       Zr542   2.387       .  S
O537       Zr544   2.365       .  S
O538       Zr543   2.378       .  S
O538       Zr544   2.354       .  S
O538        H573   0.964       .  S
O539       Zr542   2.412       .  S
O539       Zr559   2.403       .  S
O539        H576   0.966       .  S
O540       Zr543   2.399       .  S
O540       Zr559   2.385       .  S
Zr541       O566   2.437       .  S
Zr541       O560   2.463       .  S
Zr541       O568   2.462       .  S
Zr541       O556   2.454       .  S
Zr541       O547   2.415       .  S
Zr541       O548   2.429       .  S
Zr541       O549   2.376       .  S
Zr541       O550   2.382       .  S
Zr542       O561   2.444       .  S
Zr542       O554   2.439       .  S
Zr542       O555   2.392       .  S
Zr542       O548   2.404       .  S
Zr542       O549   2.381       .  S
Zr543       O545   2.434       .  S
Zr543       O567   2.439       .  S
Zr543       O569   2.419       .  S
Zr543       O547   2.379       .  S
Zr543       O550   2.374       .  S
Zr544       O570   2.434       .  S
Zr544       O571   2.435       .  S
Zr544       O546   2.437       .  S
Zr544       O547   2.416       .  S
Zr544       O548   2.425       .  S
O545        H582   0.990   1_554  S
O546        H577   0.989       .  S
O546        H591   0.991       .  S
O548        H574   0.966       .  S
O549       Zr559   2.355       .  S
O550       Zr559   2.383       .  S
O550        H575   0.965       .  S
C551        C909   1.502   1_554  S
C552        C861   1.454       .  S
C553        C890   1.505       .  S
O554        H590   0.991       .  S
O555        C557   1.269       .  A
O556        C557   1.283       .  A
C557        C874   1.466       .  S
O558       Zr559   2.434       .  S
O558        H587   0.990       .  S
Zr559       O562   2.435       .  S
Zr559       O563   2.439       .  S
Zr559       O564   2.412       .  S
O560        C565   1.289       .  A
O561        H578   0.990       .  S
O561        H593   0.990       .  S
O562        H579   0.990       .  S
O563        H583   0.991       .  S
O563        H592   0.989       .  S
O564        C565   1.282       .  A
C565        C938   1.503       .  S
O566        H585   0.990       .  S
O566        H589   0.990       .  S
O567        H581   0.990   1_554  S
O567        H588   0.990   1_554  S
O568        C572   1.290       .  A
O569        C572   1.282       .  A
O570        H580   0.990       .  S
O571        H584   0.991       .  S
C572       C1213   1.487       .  S
Zr595       O596   2.434       .  S
Zr595       O597   2.402       .  S
Zr595       O598   2.499       .  S
Zr595       O601   2.450       .  S
Zr595       O603   2.376       .  S
Zr595       O604   2.392       .  S
Zr595       O605   2.406       .  S
Zr595       O606   2.420       .  S
O596        H652   0.990       .  S
O596        H660   0.990       .  S
O597        C617   1.281       .  A
O598        C619   1.292       .  A
O599       Zr609   2.386       .  S
O599        C618   1.277       .  A
O600       Zr608   2.399       .  S
O600        C619   1.270       .  A
O601        C618   1.289       .  A
O602       Zr610   2.497       .  S
O602        C617   1.297       .  A
O603       Zr608   2.385       .  S
O603       Zr610   2.369       .  S
O604       Zr609   2.378       .  S
O604       Zr610   2.351       .  S
O604        H639   0.963       .  S
O605       Zr608   2.410       .  S
O605       Zr625   2.407       .  S
O605        H642   0.966       .  S
O606       Zr609   2.397       .  S
O606       Zr625   2.390       .  S
Zr607       O632   2.437       .  S
Zr607       O626   2.453       .  S
Zr607       O634   2.448       .  S
Zr607       O622   2.443       .  S
Zr607       O613   2.407       .  S
Zr607       O614   2.425       .  S
Zr607       O615   2.375       .  S
Zr607       O616   2.383       .  S
Zr608       O627   2.442       .  S
Zr608       O620   2.438       .  S
Zr608       O621   2.398       .  S
Zr608       O614   2.400       .  S
Zr608       O615   2.378       .  S
Zr609       O611   2.436       .  S
Zr609       O633   2.437       .  S
Zr609       O635   2.423       .  S
Zr609       O613   2.384       .  S
Zr609       O616   2.365       .  S
Zr610       O636   2.435       .  S
Zr610       O637   2.436       .  S
Zr610       O612   2.437       .  S
Zr610       O613   2.413       .  S
Zr610       O614   2.425       .  S
O611        H648   0.990       .  S
O612        H643   0.990       .  S
O612        H657   0.988       .  S
O614        H640   0.966       .  S
O615       Zr625   2.352       .  S
O616       Zr625   2.381       .  S
O616        H641   0.966       .  S
C617        C842   1.502       .  S
C618        C877   1.455       .  S
C619        C826   1.504       .  S
O620        H656   0.991       .  S
O621        C623   1.271       .  A
O622        C623   1.281       .  A
C623        C858   1.455       .  S
O624       Zr625   2.439       .  S
O624        H653   0.991       .  S
Zr625       O628   2.437       .  S
Zr625       O629   2.439       .  S
Zr625       O630   2.422       .  S
O626        C631   1.287       .  A
O627        H644   0.990       .  S
O627        H659   0.990       .  S
O628        H645   0.990       .  S
O629        H649   0.990       .  S
O629        H658   0.989       .  S
O630        C631   1.285       .  A
C631        C925   1.505       .  S
O632        H651   0.991       .  S
O632        H655   0.989       .  S
O633        H647   0.990       .  S
O633        H654   0.990       .  S
O634        C638   1.287       .  A
O635        C638   1.282       .  A
O636        H646   0.990       .  S
O637        H650   0.990       .  S
C638       C1274   1.482       .  S
Zr661       O662   2.437       .  S
Zr661       O663   2.416       .  S
Zr661       O664   2.498       .  S
Zr661       O667   2.450       .  S
Zr661       O669   2.379       .  S
Zr661       O670   2.389       .  S
Zr661       O671   2.410       .  S
Zr661       O672   2.423       .  S
O662        H718   0.990       .  S
O662        H726   0.989       .  S
O663        C683   1.283       .  A
O664        C685   1.293       .  A
O665       Zr675   2.391       .  S
O665        C684   1.278       .  A
O666       Zr674   2.395       .  S
O666        C685   1.269       .  A
O667        C684   1.289       .  A
O668       Zr676   2.492       .  S
O668        C683   1.295       .  A
O669       Zr674   2.377       .  S
O669       Zr676   2.367       .  S
O670       Zr675   2.380       .  S
O670       Zr676   2.348       .  S
O670        H705   0.973       .  S
O671       Zr674   2.408       .  S
O671       Zr691   2.394       .  S
O671        H708   0.966       .  S
O672       Zr675   2.397       .  S
O672       Zr691   2.391       .  S
Zr673       O698   2.439       .  S
Zr673       O692   2.460       .  S
Zr673       O700   2.456       .  S
Zr673       O688   2.450       .  S
Zr673       O679   2.416       .  S
Zr673       O680   2.429       .  S
Zr673       O681   2.375       .  S
Zr673       O682   2.382       .  S
Zr674       O693   2.442       .  S
Zr674       O686   2.433       .  S
Zr674       O687   2.387       .  S
Zr674       O680   2.390       .  S
Zr674       O681   2.378       .  S
Zr675       O677   2.434       .  S
Zr675       O699   2.438       .  S
Zr675       O701   2.428       .  S
Zr675       O679   2.383       .  S
Zr675       O682   2.371       .  S
Zr676       O702   2.435       .  S
Zr676       O703   2.435       .  S
Zr676       O678   2.436       .  S
Zr676       O679   2.417       .  S
Zr676       O680   2.430       .  S
O677        H714   0.990       .  S
O678        H709   0.990       .  S
O678        H723   0.990       .  S
O680        H706   0.966       .  S
O681       Zr691   2.365       .  S
O682       Zr691   2.377       .  S
O682        H707   0.965       .  S
C683        C893   1.506       .  S
C684        C813   1.458       .  S
C685        C845   1.499       .  S
O686        H722   0.990       .  S
O687        C689   1.275       .  A
O688        C689   1.286       .  A
C689        C794   1.464       .  S
O690       Zr691   2.438       .  S
O690        H719   0.990       .  S
Zr691       O694   2.436       .  S
Zr691       O695   2.439       .  S
Zr691       O696   2.421       .  S
O692        C697   1.289       .  A
O693        H710   0.990       .  S
O693        H725   0.990       .  S
O694        H711   0.990       .  S
O695        H715   0.990       .  S
O695        H724   0.989       .  S
O696        C697   1.283       .  A
C697        C989   1.492       .  S
O698        H717   0.989       .  S
O698        H721   0.990       .  S
O699        H713   0.990       .  S
O699        H720   0.990       .  S
O700        C704   1.289       .  A
O701        C704   1.284       .  A
O702        H712   0.990       .  S
O703        H716   0.990       .  S
C704       C1146   1.488       .  S
Zr727       O728   2.434       .  S
Zr727       O729   2.429       .  S
Zr727       O730   2.491       .  S
Zr727       O733   2.437       .  S
Zr727       O735   2.374       .  S
Zr727       O736   2.403       .  S
Zr727       O737   2.407       .  S
Zr727       O738   2.423       .  S
O728        H784   0.990       .  S
O728        H792   0.990       .  S
O729        C749   1.285       .  A
O730        C751   1.292       .  A
O731       Zr741   2.401       .  S
O731        C750   1.271       .  A
O732       Zr740   2.393       .  S
O732        C751   1.269       .  A
O733        C750   1.284       .  A
O734       Zr742   2.474       .  S
O734        C749   1.292       .  A
O735       Zr740   2.385       .  S
O735       Zr742   2.372       .  S
O736       Zr741   2.388       .  S
O736       Zr742   2.361       .  S
O736        H771   0.965       .  S
O737       Zr740   2.411       .  S
O737       Zr757   2.408       .  S
O737        H774   0.965       .  S
O738       Zr741   2.395       .  S
O738       Zr757   2.386       .  S
Zr739       O764   2.437       .  S
Zr739       O758   2.451       .  S
Zr739       O766   2.459       .  S
Zr739       O754   2.455   1_556  S
Zr739       O745   2.403       .  S
Zr739       O746   2.425       .  S
Zr739       O747   2.377       .  S
Zr739       O748   2.384       .  S
Zr740       O759   2.441   1_556  S
Zr740       O752   2.437       .  S
Zr740       O753   2.394   1_556  S
Zr740       O746   2.401       .  S
Zr740       O747   2.383       .  S
Zr741       O743   2.436       .  S
Zr741       O765   2.439       .  S
Zr741       O767   2.409       .  S
Zr741       O745   2.389       .  S
Zr741       O748   2.379       .  S
Zr742       O768   2.435       .  S
Zr742       O769   2.436       .  S
Zr742       O744   2.437       .  S
Zr742       O745   2.403       .  S
Zr742       O746   2.423       .  S
O743        H780   0.989       .  S
O744        H775   0.991       .  S
O744        H789   0.989       .  S
O746        H772   0.966       .  S
O747       Zr757   2.353       .  S
O748       Zr757   2.381       .  S
O748        H773   0.966       .  S
C749        C829   1.504       .  S
C750        C797   1.477       .  S
C751        C906   1.497       .  S
O752        H788   0.991       .  S
O753        C755   1.271       .  A
O754        C755   1.284       .  A
C755        C810   1.470       .  S
O756       Zr757   2.438       .  S
O756        H785   0.991       .  S
Zr757       O760   2.437       .  S
Zr757       O761   2.439       .  S
Zr757       O762   2.440       .  S
O758        C763   1.287       .  A
O759        H776   0.990       .  S
O759        H791   0.990       .  S
O760        H777   0.990       .  S
O761        H781   0.989       .  S
O761        H790   0.990       .  S
O762        C763   1.286       .  A
C763       C1037   1.490       .  S
O764        H783   0.990       .  S
O764        H787   0.990       .  S
O765        H779   0.991       .  S
O765        H786   0.989       .  S
O766        C770   1.290       .  A
O767        C770   1.282       .  A
O768        H778   0.990       .  S
O769        H782   0.990       .  S
C770       C1117   1.490       .  S
C793        C794   1.401       .  A
C793        C798   1.405       .  A
C793        H800   1.085       .  S
C794        C795   1.413       .  A
C795        C796   1.395       .  A
C795        C802   1.509       .  S
C796        C797   1.403       .  A
C796        H801   1.084       .  S
C797        C798   1.419       .  A
C798        C799   1.508       .  S
C799        H803   1.111       .  S
C799        H804   1.110       .  S
C799        H805   1.108       .  S
C802        H806   1.111       .  S
C802        H807   1.109       .  S
C802        H808   1.111       .  S
C809        C810   1.409       .  A
C809        C814   1.400       .  A
C809        H816   1.084       .  S
C810        C811   1.411       .  A
C811        C812   1.398       .  A
C811        C818   1.508       .  S
C812        C813   1.402       .  A
C812        H817   1.085       .  S
C813        C814   1.404       .  A
C814        C815   1.506       .  S
C815        H819   1.111       .  S
C815        H820   1.110       .  S
C815        H821   1.110       .  S
C818        H822   1.111       .  S
C818        H823   1.110       .  S
C818        H824   1.111       .  S
C825        C826   1.412       .  A
C825        C830   1.410   1_545  A
C825        H832   1.084       .  S
C826        C827   1.416   1_545  A
C827        C828   1.412       .  A
C827        C834   1.506       .  S
C828        C829   1.412       .  A
C828        H833   1.084       .  S
C829        C830   1.416       .  A
C830        C831   1.507       .  S
C831        H835   1.111       .  S
C831        H836   1.110       .  S
C831        H837   1.110       .  S
C834        H838   1.110       .  S
C834        H839   1.107   1_565  S
C834        H840   1.111       .  S
C841        C842   1.414       .  A
C841        C846   1.410       .  A
C841        H848   1.084       .  S
C842        C843   1.413       .  A
C843        C844   1.410   1_545  A
C843        C850   1.506       .  S
C844        C845   1.413       .  A
C844        H849   1.084       .  S
C845        C846   1.414   1_565  A
C846        C847   1.507       .  S
C847        H851   1.111       .  S
C847        H852   1.110       .  S
C847        H853   1.109   1_545  S
C850        H854   1.110       .  S
C850        H855   1.111       .  S
C850        H856   1.111       .  S
C857        C858   1.397       .  A
C857        C862   1.395       .  A
C857        H864   1.085       .  S
C858        C859   1.411       .  A
C859        C860   1.400       .  A
C859        C866   1.509       .  S
C860        C861   1.401       .  A
C860        H865   1.084       .  S
C861        C862   1.414       .  A
C862        C863   1.507       .  S
C863        H867   1.111       .  S
C863        H868   1.110       .  S
C863        H869   1.107       .  S
C866        H870   1.111       .  S
C866        H871   1.109       .  S
C866        H872   1.111       .  S
C873        C874   1.398       .  A
C873        C878   1.396       .  A
C873        H880   1.085       .  S
C874        C875   1.417       .  A
C875        C876   1.401       .  A
C875        C882   1.509       .  S
C876        C877   1.398       .  A
C876        H881   1.084       .  S
C877        C878   1.414       .  A
C878        C879   1.508       .  S
C879        H883   1.110       .  S
C879        H884   1.111       .  S
C879        H885   1.106       .  S
C882        H886   1.111       .  S
C882        H887   1.109       .  S
C882        H888   1.111       .  S
C889        C890   1.413       .  A
C889        C894   1.411   1_545  A
C889        H896   1.084       .  S
C890        C891   1.416   1_545  A
C891        C892   1.413       .  A
C891        C898   1.507       .  S
C892        C893   1.414       .  A
C892        H897   1.084       .  S
C893        C894   1.415       .  A
C894        C895   1.507       .  S
C895        H899   1.111   1_565  S
C895        H900   1.110       .  S
C895        H901   1.111       .  S
C898        H902   1.110       .  S
C898        H903   1.109   1_565  S
C898        H904   1.111       .  S
C905        C906   1.413       .  A
C905        C910   1.411   1_565  A
C905        H912   1.084       .  S
C906        C907   1.414   1_565  A
C907        C908   1.408       .  A
C907        C914   1.508       .  S
C908        C909   1.413       .  A
C908        H913   1.084       .  S
C909        C910   1.413       .  A
C910        C911   1.506   1_556  S
C911        H915   1.111       .  S
C911        H916   1.110       .  S
C911        H917   1.111       .  S
C914        H918   1.110       .  S
C914        H919   1.109   1_545  S
C914        H920   1.111       .  S
C921        C922   1.407       .  A
C921        C926   1.414       .  A
C921        H928   1.084       .  S
C922        C923   1.420       .  A
C923        C924   1.400       .  A
C923        C930   1.511       .  S
C924        C925   1.408       .  A
C924        H929   1.083       .  S
C925        C926   1.423       .  A
C926        C927   1.507       .  S
C927        H931   1.111       .  S
C927        H932   1.110       .  S
C927        H933   1.111       .  S
C930        H934   1.109       .  S
C930        H935   1.109       .  S
C930        H936   1.111       .  S
C937        C938   1.409       .  A
C937        C942   1.403       .  A
C937        H944   1.084       .  S
C938        C939   1.419       .  A
C939        C940   1.414       .  A
C939        C946   1.507       .  S
C940        C941   1.409       .  A
C940        H945   1.084       .  S
C941        C942   1.419       .  A
C942        C943   1.509       .  S
C943        H947   1.111       .  S
C943        H948   1.109       .  S
C943        H949   1.109       .  S
C946        H950   1.110       .  S
C946        H951   1.111       .  S
C946        H952   1.111       .  S
C953        C954   1.409       .  A
C953        C958   1.402       .  A
C953        H960   1.084       .  S
C954        C955   1.418       .  A
C955        C956   1.396       .  A
C955        C962   1.504       .  S
C956        C957   1.400       .  A
C956        H961   1.085       .  S
C957        C958   1.409       .  A
C958        C959   1.506       .  S
C959        H963   1.111       .  S
C959        H964   1.110       .  S
C959        H965   1.109       .  S
C962        H966   1.104       .  S
C962        H967   1.106       .  S
C962        H968   1.111       .  S
C969        C970   1.400       .  A
C969        C974   1.404       .  A
C969        H976   1.084       .  S
C970        C971   1.413       .  A
C971        C972   1.398       .  A
C971        C978   1.507       .  S
C972        C973   1.397       .  A
C972        H977   1.085       .  S
C973        C974   1.415       .  A
C974        C975   1.507       .  S
C975        H979   1.111       .  S
C975        H980   1.110       .  S
C975        H981   1.109       .  S
C978        H982   1.108       .  S
C978        H983   1.105       .  S
C978        H984   1.111       .  S
C985        C986   1.415       .  A
C985        C990   1.414       .  A
C985        H992   1.083       .  S
C986        C987   1.425       .  A
C987        C988   1.403       .  A
C987        C994   1.511       .  S
C988        C989   1.402       .  A
C988        H993   1.085       .  S
C989        C990   1.414       .  A
C990        C991   1.506       .  S
C991        H995   1.111       .  S
C991        H996   1.110       .  S
C991        H997   1.111       .  S
C994        H998   1.110       .  S
C994        H999   1.110       .  S
C994       H1000   1.111       .  S
C1001      C1002   1.414       .  A
C1001      C1006   1.409       .  A
C1001      H1008   1.083       .  S
C1002      C1003   1.414       .  A
C1003      C1004   1.415   1_455  A
C1003      C1010   1.506       .  S
C1004      C1005   1.415       .  A
C1004      H1009   1.084       .  S
C1005      C1006   1.413   1_655  A
C1006      C1007   1.508       .  S
C1007      H1011   1.110       .  S
C1007      H1012   1.106   1_455  S
C1007      H1013   1.110       .  S
C1010      H1014   1.110       .  S
C1010      H1015   1.111       .  S
C1010      H1016   1.111       .  S
C1017      C1018   1.411       .  A
C1017      C1022   1.418   1_655  A
C1017      H1024   1.083       .  S
C1018      C1019   1.435       .  A
C1019      C1020   1.408   1_655  A
C1019      C1026   1.514       .  S
C1020      C1021   1.397       .  A
C1020      H1025   1.083       .  S
C1021      C1022   1.419       .  A
C1022      C1023   1.506       .  S
C1023      H1027   1.111   1_455  S
C1023      H1028   1.109       .  S
C1023      H1029   1.110       .  S
C1026      H1030   1.110       .  S
C1026      H1031   1.108       .  S
C1026      H1032   1.111   1_655  S
C1033      C1034   1.411       .  A
C1033      C1038   1.405       .  A
C1033      H1040   1.083       .  S
C1034      C1035   1.426       .  A
C1035      C1036   1.415   1_554  A
C1035      C1042   1.507   1_554  S
C1036      C1037   1.403       .  A
C1036      H1041   1.084       .  S
C1037      C1038   1.412   1_556  A
C1038      C1039   1.508       .  S
C1039      H1043   1.111       .  S
C1039      H1044   1.109       .  S
C1039      H1045   1.109       .  S
C1042      H1046   1.111       .  S
C1042      H1047   1.109   1_556  S
C1042      H1048   1.111       .  S
C1049      C1050   1.399   1_455  A
C1049      C1054   1.408       .  A
C1049      H1056   1.084   1_455  S
C1050      C1051   1.417   1_655  A
C1051      C1052   1.411       .  A
C1051      C1058   1.506   1_455  S
C1052      C1053   1.409       .  A
C1052      H1057   1.084       .  S
C1053      C1054   1.433       .  A
C1054      C1055   1.512       .  S
C1055      H1059   1.111       .  S
C1055      H1060   1.110       .  S
C1055      H1061   1.107       .  S
C1058      H1062   1.110       .  S
C1058      H1063   1.109       .  S
C1058      H1064   1.111   1_655  S
C1065      C1066   1.399       .  A
C1065      C1070   1.392       .  A
C1065      H1072   1.084       .  S
C1066      C1067   1.412       .  A
C1067      C1068   1.396       .  A
C1067      C1074   1.507       .  S
C1068      C1069   1.399       .  A
C1068      H1073   1.085       .  S
C1069      C1070   1.409       .  A
C1070      C1071   1.509       .  S
C1071      H1075   1.111       .  S
C1071      H1076   1.109       .  S
C1071      H1077   1.109       .  S
C1074      H1078   1.109       .  S
C1074      H1079   1.111       .  S
C1074      H1080   1.110       .  S
C1081      C1082   1.397       .  A
C1081      C1086   1.398       .  A
C1081      H1088   1.085       .  S
C1082      C1083   1.412       .  A
C1083      C1084   1.395       .  A
C1083      C1090   1.509       .  S
C1084      C1085   1.398       .  A
C1084      H1089   1.085       .  S
C1085      C1086   1.415       .  A
C1086      C1087   1.509       .  S
C1087      H1091   1.111       .  S
C1087      H1092   1.111       .  S
C1087      H1093   1.109       .  S
C1090      H1094   1.107       .  S
C1090      H1095   1.107       .  S
C1090      H1096   1.111       .  S
C1097      C1098   1.410       .  A
C1097      C1102   1.417       .  A
C1097      H1104   1.083       .  S
C1098      C1099   1.437       .  A
C1099      C1100   1.409       .  A
C1099      C1106   1.513       .  S
C1100      C1101   1.396   1_655  A
C1100      H1105   1.085   1_655  S
C1101      C1102   1.417   1_455  A
C1102      C1103   1.505   1_655  S
C1103      H1107   1.111   1_455  S
C1103      H1108   1.109       .  S
C1103      H1109   1.111       .  S
C1106      H1110   1.110       .  S
C1106      H1111   1.108       .  S
C1106      H1112   1.111       .  S
C1113      C1114   1.404       .  A
C1113      C1118   1.411       .  A
C1113      H1120   1.084       .  S
C1114      C1115   1.416       .  A
C1115      C1116   1.401       .  A
C1115      C1122   1.508       .  S
C1116      C1117   1.405       .  A
C1116      H1121   1.085       .  S
C1117      C1118   1.418       .  A
C1118      C1119   1.505       .  S
C1119      H1123   1.110       .  S
C1119      H1124   1.109       .  S
C1119      H1125   1.111       .  S
C1122      H1126   1.105       .  S
C1122      H1127   1.110       .  S
C1122      H1128   1.109       .  S
C1129      C1130   1.403       .  A
C1129      C1134   1.404       .  A
C1129      H1136   1.083       .  S
C1130      C1131   1.421       .  A
C1131      C1132   1.408       .  A
C1131      C1138   1.509       .  S
C1132      C1133   1.408       .  A
C1132      H1137   1.084       .  S
C1133      C1134   1.424       .  A
C1134      C1135   1.509       .  S
C1135      H1139   1.111       .  S
C1135      H1140   1.109       .  S
C1135      H1141   1.110       .  S
C1138      H1142   1.111       .  S
C1138      H1143   1.109       .  S
C1138      H1144   1.110       .  S
C1145      C1146   1.403       .  A
C1145      C1150   1.406       .  A
C1145      H1152   1.084       .  S
C1146      C1147   1.415       .  A
C1147      C1148   1.411       .  A
C1147      C1154   1.505       .  S
C1148      C1149   1.406       .  A
C1148      H1153   1.084       .  S
C1149      C1150   1.416       .  A
C1150      C1151   1.504       .  S
C1151      H1155   1.111       .  S
C1151      H1156   1.109       .  S
C1151      H1157   1.111       .  S
C1154      H1158   1.110       .  S
C1154      H1159   1.110       .  S
C1154      H1160   1.111       .  S
C1161      C1162   1.405       .  A
C1161      C1166   1.405       .  A
C1161      H1168   1.084       .  S
C1162      C1163   1.424       .  A
C1163      C1164   1.406       .  A
C1163      C1170   1.509       .  S
C1164      C1165   1.404       .  A
C1164      H1169   1.080       .  S
C1165      C1166   1.421       .  A
C1166      C1167   1.508       .  S
C1167      H1171   1.111       .  S
C1167      H1172   1.110       .  S
C1167      H1173   1.109       .  S
C1170      H1174   1.109       .  S
C1170      H1175   1.110       .  S
C1170      H1176   1.111       .  S
C1177      C1178   1.406   1_556  A
C1177      C1182   1.395       .  A
C1177      H1184   1.085   1_556  S
C1178      C1179   1.402   1_554  A
C1179      C1180   1.400       .  A
C1179      C1186   1.506       .  S
C1180      C1181   1.415       .  A
C1180      H1185   1.084       .  S
C1181      C1182   1.411       .  A
C1182      C1183   1.508       .  S
C1183      H1187   1.111       .  S
C1183      H1188   1.110       .  S
C1183      H1189   1.109       .  S
C1186      H1190   1.110   1_556  S
C1186      H1191   1.110   1_556  S
C1186      H1192   1.111       .  S
C1193      C1194   1.404       .  A
C1193      C1198   1.394       .  A
C1193      H1200   1.083       .  S
C1194      C1195   1.415       .  A
C1195      C1196   1.403       .  A
C1195      C1202   1.507       .  S
C1196      C1197   1.402       .  A
C1196      H1201   1.085       .  S
C1197      C1198   1.409       .  A
C1198      C1199   1.509       .  S
C1199      H1203   1.112       .  S
C1199      H1204   1.109       .  S
C1199      H1205   1.110       .  S
C1202      H1206   1.110       .  S
C1202      H1207   1.108       .  S
C1202      H1208   1.111       .  S
C1209      C1210   1.407       .  A
C1209      C1214   1.412       .  A
C1209      H1216   1.084       .  S
C1210      C1211   1.419       .  A
C1211      C1212   1.406       .  A
C1211      C1218   1.510       .  S
C1212      C1213   1.403       .  A
C1212      H1217   1.084       .  S
C1213      C1214   1.414       .  A
C1214      C1215   1.506       .  S
C1215      H1219   1.111       .  S
C1215      H1220   1.110       .  S
C1215      H1221   1.111       .  S
C1218      H1222   1.110       .  S
C1218      H1223   1.110   1_554  S
C1218      H1224   1.111       .  S
C1225      C1226   1.407       .  A
C1225      C1230   1.408       .  A
C1225      H1232   1.084       .  S
C1226      C1227   1.418       .  A
C1227      C1228   1.408       .  A
C1227      C1234   1.508   1_556  S
C1228      C1229   1.412       .  A
C1228      H1233   1.083       .  S
C1229      C1230   1.423       .  A
C1230      C1231   1.507       .  S
C1231      H1235   1.111       .  S
C1231      H1236   1.110       .  S
C1231      H1237   1.109       .  S
C1234      H1238   1.110   1_554  S
C1234      H1239   1.110       .  S
C1234      H1240   1.111       .  S
C1241      C1242   1.410       .  A
C1241      C1246   1.412       .  A
C1241      H1248   1.083       .  S
C1242      C1243   1.429       .  A
C1243      C1244   1.413       .  A
C1243      C1250   1.508       .  S
C1244      C1245   1.402       .  A
C1244      H1249   1.084       .  S
C1245      C1246   1.416       .  A
C1246      C1247   1.507       .  S
C1247      H1251   1.111       .  S
C1247      H1252   1.108       .  S
C1247      H1253   1.111       .  S
C1250      H1254   1.109       .  S
C1250      H1255   1.108       .  S
C1250      H1256   1.111       .  S
C1257      C1258   1.405       .  A
C1257      C1262   1.408       .  A
C1257      H1264   1.084       .  S
C1258      C1259   1.429       .  A
C1259      C1260   1.414   1_554  A
C1259      C1266   1.508       .  S
C1260      C1261   1.402       .  A
C1260      H1265   1.084       .  S
C1261      C1262   1.421   1_556  A
C1262      C1263   1.507       .  S
C1263      H1267   1.110       .  S
C1263      H1268   1.110       .  S
C1263      H1269   1.109       .  S
C1266      H1270   1.109       .  S
C1266      H1271   1.109       .  S
C1266      H1272   1.111   1_554  S
C1273      C1274   1.404       .  A
C1273      C1278   1.408       .  A
C1273      H1280   1.084       .  S
C1274      C1275   1.412       .  A
C1275      C1276   1.407       .  A
C1275      C1282   1.507       .  S
C1276      C1277   1.407       .  A
C1276      H1281   1.084       .  S
C1277      C1278   1.418       .  A
C1278      C1279   1.508       .  S
C1279      H1283   1.111       .  S
C1279      H1284   1.110       .  S
C1279      H1285   1.110       .  S
C1282      H1286   1.110       .  S
C1282      H1287   1.110       .  S
C1282      H1288   1.111       .  S
C1289      C1290   1.412       .  A
C1289      C1294   1.408       .  A
C1289      H1296   1.083       .  S
C1290      C1291   1.420       .  A
C1291      C1292   1.410       .  A
C1291      C1298   1.508       .  S
C1292      C1293   1.410       .  A
C1292      H1297   1.084       .  S
C1293      C1294   1.416       .  A
C1294      C1295   1.509       .  S
C1295      H1299   1.111       .  S
C1295      H1300   1.110       .  S
C1295      H1301   1.110       .  S
C1298      H1302   1.109       .  S
C1298      H1303   1.110       .  S
C1298      H1304   1.111       .  S
C1305      C1306   1.403       .  A
C1305      C1310   1.398       .  A
C1305      H1312   1.084       .  S
C1306      C1307   1.415       .  A
C1307      C1308   1.406       .  A
C1307      C1314   1.507       .  S
C1308      C1309   1.403       .  A
C1308      H1313   1.085       .  S
C1309      C1310   1.412       .  A
C1310      C1311   1.508       .  S
C1311      H1315   1.111       .  S
C1311      H1316   1.109       .  S
C1311      H1317   1.110       .  S
C1314      H1318   1.110       .  S
C1314      H1319   1.108       .  S
C1314      H1320   1.111       .  S
C1321      C1322   1.401       .  A
C1321      C1326   1.401       .  A
C1321      H1328   1.084       .  S
C1322      C1323   1.415       .  A
C1323      C1324   1.393       .  A
C1323      C1330   1.507       .  S
C1324      C1325   1.394       .  A
C1324      H1329   1.085       .  S
C1325      C1326   1.411       .  A
C1326      C1327   1.507       .  S
C1327      H1331   1.111       .  S
C1327      H1332   1.111       .  S
C1327      H1333   1.109       .  S
C1330      H1334   1.111       .  S
C1330      H1335   1.103       .  S
C1330      H1336   1.110       .  S
C1337      C1338   1.414       .  A
C1337      C1342   1.415       .  A
C1337      H1344   1.084       .  S
C1338      C1339   1.413       .  A
C1339      C1340   1.414       .  A
C1339      C1346   1.507       .  S
C1340      C1341   1.416       .  A
C1340      H1345   1.084       .  S
C1341      C1342   1.417       .  A
C1342      C1343   1.506       .  S
C1343      H1347   1.111       .  S
C1343      H1348   1.110       .  S
C1343      H1349   1.110       .  S
C1346      H1350   1.110       .  S
C1346      H1351   1.110       .  S
C1346      H1352   1.111       .  S
C1353      C1354   1.400       .  A
C1353      C1358   1.410       .  A
C1353      H1360   1.085       .  S
C1354      C1355   1.417       .  A
C1355      C1356   1.409       .  A
C1355      C1362   1.508       .  S
C1356      C1357   1.408       .  A
C1356      H1361   1.083       .  S
C1357      C1358   1.430       .  A
C1358      C1359   1.510       .  S
C1359      H1363   1.111       .  S
C1359      H1364   1.110       .  S
C1359      H1365   1.107       .  S
C1362      H1366   1.108       .  S
C1362      H1367   1.110       .  S
C1362      H1368   1.111       .  S
