geometry optimzed in LAMMPS
_audit_creation_date              2020-11-30 
_audit_creation_method            'lammps2cif' 
_symmetry_space_group_name_H-M    'P1' 
_symmetry_Int_Tables_number       1 
_symmetry_cell_setting            triclinic 
loop_ 
_symmetry_equiv_pos_as_xyz 
  x,y,z 
_cell_length_a                    34.64185496 
_cell_length_b                    67.37925549297884 
_cell_length_c                    138.43712812816992 
_cell_angle_alpha                 90.04811287138482 
_cell_angle_beta                  89.98272283239213 
_cell_angle_gamma                 90.02414533654189 
loop_ 
_atom_site_label 
_atom_site_type_symbol 
_atom_site_fract_x 
_atom_site_fract_y 
_atom_site_fract_z 
_atom_site_charge 
Zn1        Zn  0.16530985  0.52508710  0.32145366     1.49700
Zn2        Zn  0.09742645  0.51743245  0.30636288     1.49400
Zn3        Zn  0.16727471  0.48934249  0.30619312     1.49100
Zn4        Zn  0.10745131  0.48734623  0.32402357     1.49500
O5          O  0.13454770  0.50471791  0.31470289    -1.82900
O6          O  0.14269774  0.55301013  0.31946317    -0.73500
O7          O  0.10817886  0.51444992  0.29217438    -0.73300
O8          O  0.22209706  0.49692217  0.30807318    -0.72800
O9          O  0.09449100  0.54600260  0.30946572    -0.73500
O10         O  0.22235840  0.52312583  0.31778146    -0.73100
O11         O  0.15437257  0.49175370  0.29199542    -0.73700
O12         O  0.12194086  0.45812999  0.32165507    -0.73100
O13         O  0.04446283  0.50760935  0.30895264    -0.73800
O14         O  0.16495135  0.46113525  0.30981010    -0.73200
O15         O  0.04888001  0.49144351  0.32293401    -0.73700
O16         O  0.12455692  0.49392057  0.33779389    -0.73600
O17         O  0.16399035  0.51955578  0.33576523    -0.73400
C18         C  0.11292477  0.55830282  0.31466756     0.78400
C19         C  0.13077097  0.50298443  0.28756904     0.78900
C20         C  0.24029917  0.51017524  0.31275096     0.77900
C21         C  0.14692612  0.45061832  0.31592841     0.78200
C22         C  0.02884354  0.49916155  0.31616047     0.79400
C23         C  0.14746092  0.50697820  0.34125172     0.78400
Zn24       Zn  0.67275451  0.48961629  0.31948772     1.49700
Zn25       Zn  0.60329355  0.51841446  0.32220880     1.49400
Zn26       Zn  0.66320409  0.52657115  0.30496065     1.49100
Zn27       Zn  0.60563425  0.48813032  0.30462612     1.49500
O28         O  0.63633771  0.50588651  0.31264002    -1.82900
O29         O  0.66637946  0.49133714  0.33372367    -0.73500
O30         O  0.59760331  0.54707643  0.31919043    -0.73300
O31         O  0.72174153  0.52691471  0.30834605    -0.72800
O32         O  0.62366515  0.51542506  0.33577476    -0.73500
O33         O  0.72514642  0.49977239  0.31741285    -0.73100
O34         O  0.63686578  0.55388185  0.30698532    -0.73700
O35         O  0.61386367  0.49551363  0.29085735    -0.73100
O36         O  0.54867327  0.50866712  0.32132457    -0.73800
O37         O  0.65646080  0.52021101  0.29066405    -0.73200
O38         O  0.54901446  0.49175184  0.30754154    -0.73700
O39         O  0.62134973  0.45892217  0.30575600    -0.73600
O40         O  0.67204681  0.46121933  0.31541334    -0.73400
C41         C  0.64828846  0.50328569  0.33918768     0.78400
C42         C  0.61061479  0.55918237  0.31295872     0.78900
C43         C  0.74123355  0.51449354  0.31337224     0.77900
C44         C  0.63470580  0.50786733  0.28625339     0.78200
C45         C  0.53085932  0.49991503  0.31449951     0.79400
C46         C  0.64989510  0.45092570  0.31007435     0.78400
Zn47       Zn  0.20346704  0.52422390  0.43235766     1.49700
Zn48       Zn  0.19918501  0.48724407  0.44683263     1.49400
Zn49       Zn  0.25839644  0.48608172  0.42895697     1.49100
Zn50       Zn  0.27129777  0.51416941  0.44723375     1.49500
O51         O  0.23294121  0.50291975  0.43870329    -1.82900
O52         O  0.14607081  0.52223716  0.43571926    -0.73500
O53         O  0.20562283  0.45855718  0.44385145    -0.73300
O54         O  0.23877595  0.49281583  0.41553331    -0.72800
O55         O  0.14461787  0.49362235  0.44369600    -0.73500
O56         O  0.20372908  0.51996263  0.41789833    -0.73100
O57         O  0.24499144  0.45695071  0.43119296    -0.73700
O58         O  0.32362339  0.50455542  0.44386389    -0.73100
O59         O  0.20817775  0.49102516  0.46120371    -0.73800
O60         O  0.31708645  0.49002404  0.42951712    -0.73200
O61         O  0.26196692  0.50874885  0.46131794    -0.73700
O62         O  0.27460967  0.54334194  0.44520901    -0.73600
O63         O  0.22789600  0.55151319  0.43499350    -0.73400
C64         C  0.12734508  0.50783310  0.43947573     0.78400
C65         C  0.22331800  0.44856958  0.43743271     0.78900
C66         C  0.21742274  0.50671574  0.41229188     0.77900
C67         C  0.33819084  0.49686793  0.43631857     0.78200
C68         C  0.23536288  0.49955955  0.46580067     0.79400
C69         C  0.25716683  0.55624513  0.44013101     0.78400
Zn70       Zn  0.69625990  0.49004954  0.42871872     1.49700
Zn71       Zn  0.70418887  0.52512558  0.44409131     1.49400
Zn72       Zn  0.76254298  0.48693022  0.44368582     1.49100
Zn73       Zn  0.76556607  0.51942740  0.42686563     1.49500
O74         O  0.73229260  0.50561117  0.43600948    -1.82900
O75         O  0.64359236  0.49907428  0.43118543    -0.73500
O76         O  0.71295722  0.51814608  0.45814834    -0.73300
O77         O  0.74507785  0.45815338  0.44222111    -0.72800
O78         O  0.64545442  0.52469641  0.44121428    -0.73500
O79         O  0.69703946  0.46136422  0.43185218    -0.73100
O80         O  0.75583860  0.49357140  0.45762460    -0.73700
O81         O  0.82028027  0.50955227  0.42776745    -0.73100
O82         O  0.72742862  0.55298576  0.44243894    -0.73800
O83         O  0.81911052  0.48941322  0.44045750    -0.73200
O84         O  0.76968862  0.54794903  0.43064766    -0.73700
O85         O  0.74621832  0.51734902  0.41304972    -0.73600
O86         O  0.70287394  0.49340523  0.41468627    -0.73400
C87         C  0.62653794  0.51264972  0.43585495     0.78400
C88         C  0.73504997  0.50572399  0.46236700     0.78900
C89         C  0.71751743  0.45061684  0.43734404     0.77900
C90         C  0.83766549  0.49872176  0.43391818     0.78200
C91         C  0.75439991  0.55926747  0.43693003     0.79400
C92         C  0.72151559  0.50547239  0.40942168     0.78400
Zn93       Zn  0.44170969  0.76702219  0.31840316     1.49700
Zn94       Zn  0.50868631  0.73678253  0.32003570     1.49400
Zn95       Zn  0.44807450  0.73174365  0.30287483     1.49100
Zn96       Zn  0.50838740  0.76991782  0.30341360     1.49500
O97         O  0.47684111  0.75119292  0.31093961    -1.82900
O98         O  0.44450149  0.76145028  0.33234605    -0.73500
O99         O  0.50791119  0.70798200  0.31723244    -0.73300
O100        O  0.38892395  0.73508467  0.30476512    -0.72800
O101        O  0.49235820  0.74002116  0.33383921    -0.73500
O102        O  0.38888142  0.76083332  0.31471903    -0.73100
O103        O  0.46596951  0.70278135  0.30543789    -0.73700
O104        O  0.50071646  0.76372742  0.28936607    -0.73100
O105        O  0.56349577  0.74426786  0.31853348    -0.73800
O106        O  0.46087985  0.73769428  0.28889601    -0.73200
O107        O  0.56547596  0.76622828  0.30656137    -0.73700
O108        O  0.49304188  0.79903693  0.30546101    -0.73600
O109        O  0.44777636  0.79600836  0.31663809    -0.73400
C110        C  0.46542670  0.75033340  0.33753459     0.78400
C111        C  0.49097695  0.69625348  0.31144367     0.78900
C112        C  0.37078759  0.74819919  0.30969075     0.77900
C113        C  0.48172608  0.75069610  0.28467357     0.78200
C114        C  0.58238280  0.75523751  0.31276118     0.79400
C115        C  0.46830300  0.80676711  0.31116016     0.78400
Zn116      Zn  0.94791102  0.72947064  0.31960279     1.49700
Zn117      Zn  0.94062560  0.76535236  0.30401074     1.49400
Zn118      Zn  0.00359775  0.76756377  0.32103519     1.49100
Zn119      Zn  0.01017708  0.73675840  0.30322037     1.49500
O120        O  0.97537677  0.74989549  0.31211675    -1.82900
O121        O  0.89082569  0.73016299  0.31630878    -0.73500
O122        O  0.94169227  0.79404397  0.30782752    -0.73300
O123        O  0.99071194  0.76126645  0.33517120    -0.72800
O124        O  0.88698089  0.75586053  0.30623315    -0.73500
O125        O  0.95054410  0.73576219  0.33384618    -0.73100
O126        O  0.98668148  0.79629398  0.31917137    -0.73700
O127        O  0.06302203  0.74766321  0.30478878    -0.73100
O128        O  0.95140802  0.76319184  0.28957393    -0.73800
O129        O  0.06153036  0.76520956  0.31843098    -0.73200
O130        O  0.99532375  0.73933475  0.28918971    -0.73700
O131        O  0.01543918  0.70810858  0.30643375    -0.73600
O132        O  0.97201667  0.70187067  0.31777894    -0.73400
C133        C  0.87111684  0.74216625  0.31115998     0.78400
C134        C  0.96090485  0.80430529  0.31386853     0.78900
C135        C  0.96813142  0.74852761  0.33901593     0.77900
C136        C  0.08004339  0.75749252  0.31137098     0.78200
C137        C  0.97283895  0.75128290  0.28484610     0.79400
C138        C  0.99967883  0.69617334  0.31233688     0.78400
Zn139      Zn  0.35723535  0.73182983  0.42538437     1.49700
Zn140      Zn  0.42472362  0.76279969  0.42703025     1.49400
Zn141      Zn  0.35750403  0.76587408  0.44180177     1.49100
Zn142      Zn  0.41830173  0.72881587  0.44276346     1.49500
O143        O  0.38911586  0.74713028  0.43438113    -1.82900
O144        O  0.37376082  0.73532104  0.41145121    -0.73500
O145        O  0.41950633  0.79178075  0.42901806    -0.73300
O146        O  0.30114927  0.76093002  0.43909982    -0.72800
O147        O  0.42149196  0.75691192  0.41317016    -0.73500
O148        O  0.30116322  0.73848514  0.42733095    -0.73100
O149        O  0.37180541  0.79510496  0.43952528    -0.73700
O150        O  0.40569428  0.73510421  0.45658506    -0.73100
O151        O  0.47780817  0.75701825  0.43080092    -0.73800
O152        O  0.36448156  0.76031816  0.45591268    -0.73200
O153        O  0.47705239  0.73203904  0.44116736    -0.73700
O154        O  0.40066622  0.70018072  0.44072114    -0.73600
O155        O  0.36006545  0.70279259  0.42836115    -0.73400
C156        C  0.40089808  0.74576173  0.40788329     0.78400
C157        C  0.39832260  0.80266448  0.43429012     0.78900
C158        C  0.28313156  0.74944770  0.43333320     0.77900
C159        C  0.38381626  0.74768725  0.46073676     0.78200
C160        C  0.49548213  0.74493372  0.43622322     0.79400
C161        C  0.37689752  0.69242391  0.43476795     0.78400
Zn162      Zn  0.92726299  0.76604776  0.43033966     1.49700
Zn163      Zn  0.86002246  0.76926405  0.44572416     1.49400
Zn164      Zn  0.85592763  0.73814676  0.42804878     1.49100
Zn165      Zn  0.91560003  0.73114800  0.44582594     1.49500
O166        O  0.88961738  0.75098800  0.43756668    -1.82900
O167        O  0.92265705  0.79519782  0.43259208    -0.73500
O168        O  0.80314225  0.76607880  0.44300338    -0.73300
O169        O  0.87467656  0.74114799  0.41393807    -0.72800
O170        O  0.87557798  0.79796976  0.44340973    -0.73500
O171        O  0.92356227  0.76177335  0.41613737    -0.73100
O172        O  0.80182624  0.74857813  0.42936932    -0.73700
O173        O  0.89067950  0.70391469  0.44384002    -0.73100
O174        O  0.86850446  0.76355274  0.45986956    -0.73800
O175        O  0.85008207  0.70932750  0.43165583    -0.73200
O176        O  0.90876916  0.73797137  0.46006011    -0.73700
O177        O  0.97366980  0.73056501  0.44310242    -0.73600
O178        O  0.97993320  0.75707865  0.43365055    -0.73400
C179        C  0.90103501  0.80575257  0.43794279     0.78400
C180        C  0.78458774  0.75800454  0.43608658     0.78900
C181        C  0.90252261  0.75147085  0.41055228     0.77900
C182        C  0.86417891  0.69795725  0.43810970     0.78200
C183        C  0.88869718  0.75095431  0.46450487     0.79400
C184        C  0.99452482  0.74259122  0.43824261     0.78400
Zn185      Zn  0.26417884  0.27074337  0.30850646     1.49700
Zn186      Zn  0.26527502  0.23879205  0.32571656     1.49400
Zn187      Zn  0.19461033  0.26661164  0.32303575     1.49100
Zn188      Zn  0.20682118  0.23295160  0.30765584     1.49500
O189        O  0.23313248  0.25210429  0.31610704    -1.82900
O190        O  0.32081167  0.26513432  0.31070893    -0.73500
O191        O  0.24752677  0.24343643  0.33964728    -0.73300
O192        O  0.20181997  0.29538041  0.32176899    -0.72800
O193        O  0.32127357  0.24576959  0.32371313    -0.73500
O194        O  0.25048317  0.29960997  0.31157974    -0.73100
O195        O  0.19391175  0.26043538  0.33698483    -0.73700
O196        O  0.14805082  0.23444096  0.30874727    -0.73100
O197        O  0.26429761  0.20957371  0.32317130    -0.73800
O198        O  0.14272763  0.26110121  0.31800775    -0.73200
O199        O  0.22693681  0.20522371  0.31028401    -0.73700
O200        O  0.21795106  0.23952771  0.29375262    -0.73600
O201        O  0.25496561  0.26644041  0.29429070    -0.73400
C202        C  0.33900951  0.25501143  0.31701595     0.78400
C203        C  0.21677432  0.25171776  0.34273671     0.78900
C204        C  0.22398246  0.30667287  0.31699604     0.77900
C205        C  0.12755092  0.24790665  0.31270101     0.78200
C206        C  0.24978813  0.19839622  0.31670262     0.79400
C207        C  0.23656521  0.25331478  0.28952560     0.78400
Zn208      Zn  0.76657699  0.23862594  0.32189795     1.49700
Zn209      Zn  0.69559126  0.26586772  0.31922717     1.49400
Zn210      Zn  0.76226512  0.26888280  0.30419502     1.49100
Zn211      Zn  0.70726589  0.22940608  0.30417094     1.49500
O212        O  0.73281753  0.25036394  0.31219749    -1.82900
O213        O  0.75033420  0.24372286  0.33583459    -0.73500
O214        O  0.69546836  0.29452725  0.31562915    -0.73300
O215        O  0.81927722  0.26635836  0.30681379    -0.72800
O216        O  0.70001930  0.26330851  0.33356273    -0.73500
O217        O  0.82155585  0.24636986  0.31954475    -0.73100
O218        O  0.74400358  0.29758570  0.30534890    -0.73700
O219        O  0.71882849  0.23456667  0.28975025    -0.73100
O220        O  0.64429492  0.25599681  0.31612445    -0.73800
O221        O  0.75603023  0.26137947  0.29039292    -0.73200
O222        O  0.64768203  0.23009211  0.30627463    -0.73700
O223        O  0.73033381  0.20185901  0.30758783    -0.73600
O224        O  0.76824308  0.20960328  0.31995053    -0.73400
C225        C  0.72223160  0.25379548  0.33919558     0.78400
C226        C  0.71591889  0.30514443  0.31003304     0.78900
C227        C  0.83839813  0.25646966  0.31301815     0.77900
C228        C  0.73907366  0.24790513  0.28555321     0.78200
C229        C  0.62791467  0.24238849  0.31131151     0.79400
C230        C  0.75490147  0.19689121  0.31406182     0.78400
Zn231      Zn  0.16737785  0.22830404  0.43246194     1.49700
Zn232      Zn  0.11100159  0.26716914  0.43129221     1.49400
Zn233      Zn  0.10577772  0.23651651  0.44865994     1.49100
Zn234      Zn  0.17698755  0.26382142  0.44762823     1.49500
O235        O  0.14043937  0.24911104  0.43979590    -1.82900
O236        O  0.16308936  0.23481061  0.41845430    -0.73500
O237        O  0.05233999  0.26438923  0.43378330    -0.73300
O238        O  0.10178112  0.20808020  0.44600010    -0.72800
O239        O  0.12424784  0.26095917  0.41724643    -0.73500
O240        O  0.14356414  0.20062700  0.43446974    -0.73100
O241        O  0.05249708  0.24620725  0.44713881    -0.73700
O242        O  0.16813271  0.26146750  0.46192190    -0.73100
O243        O  0.12825363  0.29596559  0.43344106    -0.73800
O244        O  0.12042671  0.23965045  0.46236125    -0.73200
O245        O  0.17515439  0.29224139  0.44418832    -0.73700
O246        O  0.23054648  0.25481786  0.44506842    -0.73600
O247        O  0.22515379  0.22895964  0.43516722    -0.73400
C248        C  0.14609904  0.24790049  0.41338453     0.78400
C249        C  0.03440845  0.25594813  0.44074838     0.78900
C250        C  0.11661517  0.19557189  0.44025949     0.77900
C251        C  0.14493235  0.25053969  0.46663004     0.78200
C252        C  0.15530047  0.30321001  0.43863606     0.79400
C253        C  0.24568206  0.24106017  0.44006647     0.78400
Zn254      Zn  0.60861276  0.23672401  0.42744986     1.49700
Zn255      Zn  0.60680879  0.26885696  0.44478820     1.49400
Zn256      Zn  0.66378611  0.23051155  0.44612629     1.49100
Zn257      Zn  0.67784614  0.26519031  0.43056137     1.49500
O258        O  0.63910457  0.25012910  0.43738210    -1.82900
O259        O  0.55318364  0.24450315  0.42869280    -0.73500
O260        O  0.61015952  0.26285616  0.45907842    -0.73300
O261        O  0.64318313  0.20245205  0.44316630    -0.72800
O262        O  0.55061637  0.26558026  0.44104437    -0.73500
O263        O  0.60729278  0.20751614  0.43009468    -0.73100
O264        O  0.64813346  0.23637996  0.46004831    -0.73700
O265        O  0.72910457  0.25785731  0.43526762    -0.73100
O266        O  0.62426652  0.29758549  0.44313294    -0.73800
O267        O  0.72366626  0.23263972  0.44547800    -0.73200
O268        O  0.67420023  0.29401098  0.43328234    -0.73700
O269        O  0.67779763  0.26105763  0.41623825    -0.73600
O270        O  0.62767506  0.24139526  0.41364978    -0.73400
C271        C  0.53396449  0.25502640  0.43462372     0.78400
C272        C  0.62711085  0.24958118  0.46406745     0.78900
C273        C  0.62033017  0.19601118  0.43661581     0.77900
C274        C  0.74427429  0.24542991  0.44098366     0.78200
C275        C  0.65266800  0.30489879  0.43847196     0.79400
C276        C  0.65633294  0.25134248  0.41048323     0.78400
Zn277      Zn  0.42118183  0.99352893  0.30255340     1.49700
Zn278      Zn  0.34722845  0.01956998  0.30321592     1.49400
Zn279      Zn  0.36104866  0.98811595  0.32010495     1.49100
Zn280      Zn  0.41415490  0.02772307  0.31842331     1.49500
O281        O  0.38598750  0.00713690  0.31120413    -1.82900
O282        O  0.40894892  0.99783511  0.28841438    -0.73500
O283        O  0.29534724  0.01027497  0.30687322    -0.73300
O284        O  0.37784590  0.95981714  0.31695841    -0.72800
O285        O  0.35467720  0.01521304  0.28895480    -0.73500
O286        O  0.42096965  0.96444579  0.30529096    -0.73100
O287        O  0.30200332  0.99077013  0.31965054    -0.73700
O288        O  0.41297421  0.02120800  0.33251419    -0.73100
O289        O  0.34407955  0.04846861  0.30598114    -0.73800
O290        O  0.37901674  0.99338998  0.33382824    -0.73200
O291        O  0.38959613  0.05501168  0.31680806    -0.73700
O292        O  0.47144422  0.02758737  0.31520062    -0.73600
O293        O  0.47503605  0.00224947  0.30499700    -0.73400
C294        C  0.38102668  0.00647286  0.28416724     0.78400
C295        C  0.28069431  0.00029568  0.31372072     0.78900
C296        C  0.40315942  0.95306376  0.31110852     0.77900
C297        C  0.39941672  0.00712488  0.33760101     0.78200
C298        C  0.36097737  0.06048200  0.31166036     0.79400
C299        C  0.49122765  0.01556792  0.31007842     0.78400
Zn300      Zn  0.85310138  0.01918468  0.30651045     1.49700
Zn301      Zn  0.91483311  0.02408334  0.32296433     1.49400
Zn302      Zn  0.85449328  0.98685703  0.32377387     1.49100
Zn303      Zn  0.92029159  0.98876124  0.30749115     1.49500
O304        O  0.88557419  0.00458423  0.31534639    -1.82900
O305        O  0.85615857  0.04831391  0.30848626    -0.73500
O306        O  0.90946789  0.01717011  0.33693592    -0.73300
O307        O  0.79647336  0.99153601  0.32133712    -0.72800
O308        O  0.89497313  0.05254027  0.32105680    -0.73500
O309        O  0.79840981  0.01286474  0.30907445    -0.73100
O310        O  0.86815665  0.99202440  0.33795336    -0.73700
O311        O  0.91644863  0.96026812  0.31100228    -0.73100
O312        O  0.97262749  0.02173009  0.32040289    -0.73800
O313        O  0.86879843  0.95766004  0.32163791    -0.73200
O314        O  0.97442111  0.99579900  0.31051595    -0.73700
O315        O  0.91171874  0.99168943  0.29308747    -0.73600
O316        O  0.86465003  0.01388460  0.29263637    -0.73400
C317        C  0.87179992  0.05949672  0.31473972     0.78400
C318        C  0.89134954  0.00431039  0.34192075     0.78900
C319        C  0.77951914  0.00262652  0.31515364     0.77900
C320        C  0.89572655  0.94983611  0.31662075     0.78200
C321        C  0.99150875  0.00866145  0.31568401     0.79400
C322        C  0.88847163  0.00258440  0.28834187     0.78400
Zn323      Zn  0.45292208  0.02456962  0.44315645     1.49700
Zn324      Zn  0.50694780  0.98491720  0.44300099     1.49400
Zn325      Zn  0.44158866  0.98927140  0.42792432     1.49100
Zn326      Zn  0.51396744  0.01679887  0.42581381     1.49500
O327        O  0.47903492  0.00419721  0.43509754    -1.82900
O328        O  0.46131974  0.01788205  0.45735412    -0.73500
O329        O  0.49133953  0.95609709  0.44060563    -0.73300
O330        O  0.38952239  0.99758005  0.43151806    -0.72800
O331        O  0.49696493  0.99045016  0.45696178    -0.73500
O332        O  0.39367391  0.02433783  0.44081617    -0.73100
O333        O  0.44358574  0.96019982  0.43023275    -0.73700
O334        O  0.49693731  0.01308971  0.41175978    -0.73100
O335        O  0.56378906  0.98812920  0.44085410    -0.73800
O336        O  0.44608368  0.99367065  0.41388632    -0.73200
O337        O  0.56826127  0.00701562  0.42774439    -0.73700
O338        O  0.51826638  0.04589876  0.42887935    -0.73600
O339        O  0.47777991  0.05201793  0.44096363    -0.73400
C340        C  0.47902799  0.00382150  0.46165429     0.78400
C341        C  0.46439216  0.94892917  0.43540057     0.78900
C342        C  0.37355800  0.01135433  0.43630783     0.77900
C343        C  0.46841379  0.00333422  0.40836069     0.78200
C344        C  0.58394033  0.99706311  0.43451061     0.79400
C345        C  0.50405322  0.05777765  0.43510465     0.78400
Zn346      Zn  0.94526317  0.02617190  0.43218162     1.49700
Zn347      Zn  0.00382803  0.98849846  0.43017544     1.49400
Zn348      Zn  0.01311102  0.02018433  0.44732238     1.49100
Zn349      Zn  0.94448104  0.99115333  0.44793982     1.49500
O350        O  0.97660074  0.00644710  0.43921753    -1.82900
O351        O  0.94580207  0.01941415  0.41798098    -0.73500
O352        O  0.06281159  0.99212538  0.43131598    -0.73300
O353        O  0.00998127  0.04908853  0.44528198    -0.72800
O354        O  0.98597947  0.99392165  0.41642330    -0.73500
O355        O  0.96550720  0.05461911  0.43407917    -0.73100
O356        O  0.06630532  0.01287167  0.44375589    -0.73700
O357        O  0.95839885  0.99389803  0.46201366    -0.73100
O358        O  0.98833214  0.95959521  0.43260646    -0.73800
O359        O  0.00717585  0.01497928  0.46147186    -0.73200
O360        O  0.94573661  0.96263137  0.44447509    -0.73700
O361        O  0.88994767  0.99866404  0.44629786    -0.73600
O362        O  0.88866263  0.02390502  0.43600897    -0.73400
C363        C  0.96212515  0.00623787  0.41277411     0.78400
C364        C  0.08260251  0.00235554  0.43733064     0.78900
C365        C  0.99159567  0.06091050  0.43983751     0.77900
C366        C  0.98429013  0.00404744  0.46626645     0.78200
C367        C  0.96349366  0.95200496  0.43833337     0.79400
C368        C  0.87136813  0.01128684  0.44134817     0.78400
Zn369      Zn  0.22072974  0.48846360  0.57537896     1.49700
Zn370      Zn  0.29276118  0.51527600  0.57202965     1.49400
Zn371      Zn  0.27823822  0.47854456  0.55762824     1.49100
Zn372      Zn  0.22426236  0.51786266  0.55721620     1.49500
O373        O  0.25400524  0.49985105  0.56540989    -1.82900
O374        O  0.23994367  0.49276684  0.58902563    -0.73500
O375        O  0.34466541  0.50605709  0.56839620    -0.73300
O376        O  0.25450550  0.45138186  0.56111401    -0.72800
O377        O  0.29095711  0.51162806  0.58621322    -0.73500
O378        O  0.21604706  0.45937447  0.57333909    -0.73100
O379        O  0.33712233  0.47883384  0.55947709    -0.73700
O380        O  0.23140491  0.51049372  0.54325135    -0.73100
O381        O  0.28899992  0.54430103  0.56933521    -0.73800
O382        O  0.26804843  0.48345848  0.54331159    -0.73200
O383        O  0.24115781  0.54683665  0.55874794    -0.73700
O384        O  0.16739125  0.51477811  0.56023329    -0.73600
O385        O  0.16631737  0.49779680  0.57398594    -0.73400
C386        C  0.26940432  0.50222074  0.59202981     0.78400
C387        C  0.35865348  0.49139349  0.56382850     0.78900
C388        C  0.22943621  0.44657368  0.56748583     0.77900
C389        C  0.24906130  0.49671086  0.53875308     0.78200
C390        C  0.26753997  0.55474822  0.56390883     0.79400
C391        C  0.14887901  0.50665203  0.56715362     0.78400
Zn392      Zn  0.78381260  0.47641435  0.56878377     1.49700
Zn393      Zn  0.72479327  0.51419633  0.57024778     1.49400
Zn394      Zn  0.78917611  0.51235745  0.55383463     1.49100
Zn395      Zn  0.72052534  0.48236595  0.55288591     1.49500
O396        O  0.75447513  0.49644014  0.56158592    -1.82900
O397        O  0.77972185  0.48265644  0.58277006    -0.73500
O398        O  0.73956719  0.54338715  0.56833574    -0.73300
O399        O  0.84301193  0.50419065  0.55624216    -0.72800
O400        O  0.73927112  0.50808852  0.58416726    -0.73500
O401        O  0.84167848  0.47823455  0.56607347    -0.73100
O402        O  0.78819008  0.54060814  0.55796546    -0.73700
O403        O  0.73029810  0.48904436  0.53910308    -0.73100
O404        O  0.66667478  0.51035457  0.56822322    -0.73800
O405        O  0.77770115  0.51109066  0.53955290    -0.73200
O406        O  0.66654582  0.48946674  0.55580145    -0.73700
O407        O  0.72172113  0.45284605  0.55463140    -0.73600
O408        O  0.76182859  0.44854110  0.56694696    -0.73400
C409        C  0.76219942  0.49542276  0.58791552     0.78400
C410        C  0.76737856  0.55101118  0.56356716     0.78900
C411        C  0.86038331  0.49125675  0.56128695     0.77900
C412        C  0.75322412  0.50087103  0.53482930     0.78200
C413        C  0.64862170  0.49976806  0.56203235     0.79400
C414        C  0.73728488  0.44171234  0.56092853     0.78400
Zn415      Zn  0.38811132  0.51827679  0.67902239     1.49700
Zn416      Zn  0.32925169  0.48044843  0.68171736     1.49400
Zn417      Zn  0.39766597  0.48757239  0.69619174     1.49100
Zn418      Zn  0.32858300  0.51663129  0.69690677     1.49500
O419        O  0.36062451  0.50088913  0.68826902    -1.82900
O420        O  0.36958399  0.51176619  0.66553928    -0.73500
O421        O  0.34926316  0.45202153  0.68396621    -0.73300
O422        O  0.45011012  0.49465077  0.69239165    -0.72800
O423        O  0.33128170  0.48553544  0.66745465    -0.73500
O424        O  0.44731102  0.51470353  0.67975744    -0.73100
O425        O  0.39624631  0.45868110  0.69429417    -0.73700
O426        O  0.34242303  0.51342821  0.71104767    -0.73100
O427        O  0.27230671  0.48373558  0.68508732    -0.73800
O428        O  0.39284464  0.49339137  0.71014823    -0.73200
O429        O  0.27288208  0.51042627  0.69456042    -0.73700
O430        O  0.33395271  0.54532720  0.69389913    -0.73600
O431        O  0.37397604  0.54727551  0.68140089    -0.73400
C432        C  0.34705163  0.49856751  0.66208745     0.78400
C433        C  0.37754036  0.44635281  0.68919305     0.78900
C434        C  0.46678583  0.50450608  0.68581703     0.77900
C435        C  0.36972582  0.50387865  0.71508593     0.78200
C436        C  0.25461175  0.49732334  0.68975475     0.79400
C437        C  0.35174255  0.55548292  0.68757874     0.78400
Zn438      Zn  0.82160744  0.51702679  0.67715378     1.49700
Zn439      Zn  0.88884586  0.52204224  0.69209330     1.49400
Zn440      Zn  0.83704213  0.48206831  0.69240880     1.49100
Zn441      Zn  0.89523039  0.49065934  0.67450815     1.49500
O442        O  0.86087682  0.50272542  0.68416456    -1.82900
O443        O  0.82193461  0.54614094  0.67950736    -0.73500
O444        O  0.88202614  0.51589833  0.70623810    -0.73300
O445        O  0.77798101  0.48165822  0.69057977    -0.72800
O446        O  0.86900493  0.55030910  0.69018104    -0.73500
O447        O  0.77015616  0.50715428  0.68056568    -0.73100
O448        O  0.84755690  0.48808579  0.70658999    -0.73700
O449        O  0.90200059  0.46172251  0.67756508    -0.73100
O450        O  0.94605735  0.52002594  0.68916262    -0.73800
O451        O  0.86211074  0.45501143  0.68972291    -0.73200
O452        O  0.94923316  0.50112042  0.67601939    -0.73700
O453        O  0.87596705  0.49384294  0.66054844    -0.73600
O454        O  0.82488903  0.51284685  0.66314204    -0.73400
C455        C  0.84189052  0.55728171  0.68495641     0.78400
C456        C  0.86555418  0.50201359  0.71092334     0.78900
C457        C  0.75636773  0.49323262  0.68565639     0.77900
C458        C  0.88852697  0.44969966  0.68381141     0.78200
C459        C  0.96565568  0.51128239  0.68261196     0.79400
C460        C  0.84655327  0.50326814  0.65742906     0.78400
Zn461      Zn  0.04742308  0.23977975  0.69588735     1.49700
Zn462      Zn  0.98375310  0.24020796  0.67933522     1.49400
Zn463      Zn  0.98252371  0.27215197  0.69689195     1.49100
Zn464      Zn  0.04649175  0.27647786  0.68132955     1.49500
O465        O  0.01483418  0.25699153  0.68820243    -1.82900
O466        O  0.04214700  0.21155970  0.69190876    -0.73500
O467        O  0.92590225  0.24562233  0.68154476    -0.73300
O468        O  0.99024521  0.26443920  0.71062500    -0.72800
O469        O  0.99587964  0.21035814  0.68088545    -0.73500
O470        O  0.03483410  0.24088859  0.71003315    -0.73100
O471        O  0.92797049  0.26720749  0.69370566    -0.73700
O472        O  0.02832816  0.30509089  0.68329176    -0.73100
O473        O  0.99879006  0.24681717  0.66550729    -0.73800
O474        O  0.98786590  0.30162815  0.69554586    -0.73200
O475        O  0.04259311  0.27065828  0.66731950    -0.73700
O476        O  0.10333036  0.27330049  0.68452577    -0.73600
O477        O  0.10260980  0.24667556  0.69394490    -0.73400
C478        C  0.02116912  0.20169848  0.68610637     0.78400
C479        C  0.90903169  0.25704894  0.68760791     0.78900
C480        C  0.01124831  0.25155897  0.71478286     0.77900
C481        C  0.00491543  0.31256211  0.68940482     0.78200
C482        C  0.02344129  0.25889154  0.66197111     0.79400
C483        C  0.12100785  0.25995370  0.68931996     0.78400
Zn484      Zn  0.55540099  0.24032425  0.68318784     1.49700
Zn485      Zn  0.48489913  0.23732919  0.69746513     1.49400
Zn486      Zn  0.53927074  0.27601597  0.69793825     1.49100
Zn487      Zn  0.48369231  0.26703747  0.67938131     1.49500
O488        O  0.51574942  0.25543198  0.68959292    -1.82900
O489        O  0.55451736  0.21194297  0.68699278    -0.73500
O490        O  0.48861602  0.24447595  0.71150936    -0.73300
O491        O  0.59830274  0.27721943  0.69602986    -0.72800
O492        O  0.50254587  0.20872252  0.69620345    -0.73500
O493        O  0.60628421  0.25111024  0.68642503    -0.73100
O494        O  0.52846809  0.27026274  0.71221768    -0.73700
O495        O  0.47992153  0.29633924  0.68143571    -0.73100
O496        O  0.42908355  0.23954860  0.69390897    -0.73800
O497        O  0.51424102  0.30263817  0.69468459    -0.73200
O498        O  0.42860921  0.25773411  0.68053462    -0.73700
O499        O  0.50398006  0.26188305  0.66578538    -0.73600
O500        O  0.55321767  0.24194726  0.66878065    -0.73400
C501        C  0.53190126  0.20126392  0.69200360     0.78400
C502        C  0.50703579  0.25741887  0.71637136     0.78900
C503        C  0.62002145  0.26559948  0.69115866     0.77900
C504        C  0.49158922  0.30828867  0.68793121     0.78200
C505        C  0.41092765  0.24799403  0.68706173     0.79400
C506        C  0.53232704  0.25144156  0.66283589     0.78400
Zn507      Zn  0.06841558  0.27314557  0.57184081     1.49700
Zn508      Zn  0.07212833  0.23785301  0.55623152     1.49400
Zn509      Zn  0.13730209  0.27013634  0.55750867     1.49100
Zn510      Zn  0.13051838  0.23663634  0.57400227     1.49500
O511        O  0.10202229  0.25427184  0.56505719    -1.82900
O512        O  0.01238167  0.26911347  0.56793996    -0.73500
O513        O  0.08731129  0.24204442  0.54237482    -0.73300
O514        O  0.13161527  0.29923701  0.55946966    -0.72800
O515        O  0.01620887  0.24382922  0.55767668    -0.73500
O516        O  0.08532824  0.30217568  0.57041619    -0.73100
O517        O  0.13361217  0.26463038  0.54352725    -0.73700
O518        O  0.18915568  0.24057115  0.57243467    -0.73100
O519        O  0.07750758  0.20883865  0.55920522    -0.73800
O520        O  0.19058364  0.26416166  0.56124974    -0.73200
O521        O  0.11627662  0.20730603  0.57193200    -0.73700
O522        O  0.11473967  0.24322151  0.58773598    -0.73600
O523        O  0.07128572  0.26725059  0.58589580    -0.73400
C524        C  0.99632697  0.25622019  0.56250392     0.78400
C525        C  0.11268248  0.25313534  0.53850245     0.78900
C526        C  0.11132762  0.30986820  0.56507893     0.77900
C527        C  0.20782723  0.25261017  0.56703639     0.78200
C528        C  0.09473198  0.19881929  0.56568580     0.79400
C529        C  0.09033758  0.25543864  0.59124511     0.78400
Zn530      Zn  0.56554017  0.23503365  0.57169433     1.49700
Zn531      Zn  0.57586760  0.26954726  0.55591009     1.49400
Zn532      Zn  0.63696199  0.26218685  0.57349105     1.49100
Zn533      Zn  0.63061824  0.23060649  0.55591296     1.49500
O534        O  0.60244783  0.24960334  0.56409458    -1.82900
O535        O  0.51333442  0.24461371  0.56910887    -0.73500
O536        O  0.59882970  0.29723883  0.55860567    -0.73300
O537        O  0.62112472  0.25842921  0.58767865    -0.72800
O538        O  0.51727266  0.26909579  0.55842665    -0.73500
O539        O  0.57199634  0.23787997  0.58588365    -0.73100
O540        O  0.63949365  0.29129538  0.57068589    -0.73700
O541        O  0.68763878  0.23220433  0.55877282    -0.73100
O542        O  0.58414135  0.26325658  0.54155311    -0.73800
O543        O  0.69111215  0.25241580  0.57146178    -0.73200
O544        O  0.62390558  0.23739896  0.54181414    -0.73700
O545        O  0.61100406  0.20219300  0.55755506    -0.73600
O546        O  0.56498644  0.20656946  0.56844921    -0.73400
C547        C  0.49748924  0.25782251  0.56395893     0.78400
C548        C  0.62427478  0.30321166  0.56464868     0.78900
C549        C  0.59400022  0.24800613  0.59129890     0.77900
C550        C  0.70725894  0.24148193  0.56512550     0.78200
C551        C  0.60445412  0.25026344  0.53715277     0.79400
C552        C  0.58363059  0.19537262  0.56274494     0.78400
Zn553      Zn  0.98054721  0.01738497  0.55776608     1.49700
Zn554      Zn  0.03343370  0.97732974  0.55699010     1.49400
Zn555      Zn  0.04565637  0.01109280  0.57315492     1.49100
Zn556      Zn  0.97201396  0.98399435  0.57413281     1.49500
O557        O  0.00789948  0.99731712  0.56537811    -1.82900
O558        O  0.98863970  0.01176012  0.54368229    -0.73500
O559        O  0.09167525  0.97623808  0.55973475    -0.73300
O560        O  0.04742904  0.04038550  0.57067830    -0.72800
O561        O  0.02567719  0.98483813  0.54291937    -0.73500
O562        O  0.99923060  0.04578160  0.56052241    -0.73100
O563        O  0.09773126  0.00040627  0.57053066    -0.73700
O564        O  0.98557034  0.98728015  0.58831435    -0.73100
O565        O  0.00878192  0.94978341  0.55867862    -0.73800
O566        O  0.03601966  0.00738549  0.58720300    -0.73200
O567        O  0.96952582  0.95517181  0.57105703    -0.73700
O568        O  0.91780479  0.99299692  0.57169659    -0.73600
O569        O  0.92297063  0.01493377  0.55981628    -0.73400
C570        C  0.00640920  0.99858184  0.53881040     0.78400
C571        C  0.11257323  0.98692677  0.56529096     0.78900
C572        C  0.02710150  0.05225692  0.56567821     0.77900
C573        C  0.01216366  0.99752871  0.59225603     0.78200
C574        C  0.98348321  0.94362275  0.56468249     0.79400
C575        C  0.90240045  0.00442625  0.56548773     0.78400
Zn576      Zn  0.47957738  0.98226948  0.57066388     1.49700
Zn577      Zn  0.53670113  0.97970938  0.55224853     1.49400
Zn578      Zn  0.47131882  0.01379758  0.55356460     1.49100
Zn579      Zn  0.54325255  0.01436765  0.56767302     1.49500
O580        O  0.50760631  0.99741899  0.56091331    -1.82900
O581        O  0.48469577  0.95352579  0.56795871    -0.73500
O582        O  0.52418565  0.98629793  0.53826563    -0.73300
O583        O  0.41618006  0.00717778  0.55717294    -0.72800
O584        O  0.51920056  0.95122001  0.55444862    -0.73500
O585        O  0.42256915  0.98665023  0.56959884    -0.73100
O586        O  0.47697995  0.00846136  0.53940133    -0.73700
O587        O  0.53118458  0.04272940  0.56567548    -0.73100
O588        O  0.59531704  0.98285859  0.55409897    -0.73800
O589        O  0.48180102  0.04322641  0.55542114    -0.73200
O590        O  0.59679672  0.00991520  0.56325017    -0.73700
O591        O  0.54376311  0.00947203  0.58181851    -0.73600
O592        O  0.49731483  0.98750114  0.58433606    -0.73400
C593        C  0.49856761  0.94333698  0.56106007     0.78400
C594        C  0.49927061  0.99764520  0.53432912     0.78900
C595        C  0.40143665  0.99609270  0.56365867     0.77900
C596        C  0.50694546  0.05212479  0.56055701     0.78200
C597        C  0.61403758  0.99668392  0.55834995     0.79400
C598        C  0.52421609  0.99862234  0.58749140     0.78400
Zn599      Zn  0.13662668  0.98755620  0.69679109     1.49700
Zn600      Zn  0.12509498  0.01739758  0.67887870     1.49400
Zn601      Zn  0.06838527  0.97897116  0.68266605     1.49100
Zn602      Zn  0.06652036  0.01656449  0.69678799     1.49500
O603        O  0.09920110  0.00029592  0.68859548    -1.82900
O604        O  0.18900248  0.99516658  0.69284060    -0.73500
O605        O  0.10642136  0.00908015  0.66552054    -0.73300
O606        O  0.09140766  0.95113632  0.68471911    -0.72800
O607        O  0.18442545  0.01421721  0.67977717    -0.73500
O608        O  0.13719318  0.95821362  0.69528218    -0.73100
O609        O  0.06578745  0.98414814  0.66849587    -0.73700
O610        O  0.01171180  0.00822248  0.69537942    -0.73100
O611        O  0.10885189  0.04678347  0.68043175    -0.73800
O612        O  0.01247821  0.98025850  0.68692211    -0.73200
O613        O  0.06806797  0.04487214  0.69274418    -0.73700
O614        O  0.08072129  0.01508280  0.71088580    -0.73600
O615        O  0.12932927  0.99369572  0.71073127    -0.73400
C616        C  0.20459226  0.00453219  0.68591676     0.78400
C617        C  0.08173638  0.99625036  0.66268330     0.78900
C618        C  0.11936184  0.94566488  0.69010330     0.77900
C619        C  0.99409813  0.99379100  0.69143154     0.78200
C620        C  0.08501839  0.05497892  0.68625467     0.79400
C621        C  0.10617407  0.00493272  0.71528677     0.78400
Zn622      Zn  0.63369048  0.98881284  0.67534556     1.49700
Zn623      Zn  0.62983144  0.01787388  0.69331629     1.49400
Zn624      Zn  0.56301534  0.01693564  0.67820291     1.49100
Zn625      Zn  0.57310132  0.97973171  0.69268907     1.49500
O626        O  0.59966289  0.00053926  0.68501207    -1.82900
O627        O  0.68895278  0.99721857  0.67708859    -0.73500
O628        O  0.61534189  0.04685431  0.69203089    -0.73300
O629        O  0.56760074  0.01475197  0.66390501    -0.72800
O630        O  0.68634518  0.01364323  0.69097539    -0.73500
O631        O  0.61533605  0.99341334  0.66167294    -0.73100
O632        O  0.56540087  0.04539762  0.68208916    -0.73700
O633        O  0.51434237  0.98075585  0.69013570    -0.73100
O634        O  0.62024584  0.01116711  0.70710320    -0.73800
O635        O  0.51049909  0.00775244  0.68096232    -0.73200
O636        O  0.58156757  0.98490418  0.70717409    -0.73700
O637        O  0.59671755  0.95229254  0.68952804    -0.73600
O638        O  0.63717627  0.95981341  0.67759619    -0.73400
C639        C  0.70564756  0.00536462  0.68425727     0.78400
C640        C  0.58760515  0.05526216  0.68760068     0.78900
C641        C  0.58837050  0.00427024  0.65832919     0.77900
C642        C  0.49454269  0.99348379  0.68539419     0.78200
C643        C  0.60103503  0.99812452  0.71166757     0.79400
C644        C  0.62287304  0.94731362  0.68345876     0.78400
Zn645      Zn  0.38826582  0.76679523  0.55103445     1.49700
Zn646      Zn  0.31427314  0.74058858  0.55166450     1.49400
Zn647      Zn  0.37762538  0.73730159  0.56874495     1.49100
Zn648      Zn  0.32454917  0.77701261  0.56646634     1.49500
O649        O  0.35093414  0.75526487  0.55964342    -1.82900
O650        O  0.38102055  0.75905740  0.53735646    -0.73500
O651        O  0.31278784  0.71213796  0.55580715    -0.73300
O652        O  0.43710461  0.73936417  0.56742886    -0.72800
O653        O  0.32786548  0.74085016  0.53744456    -0.73500
O654        O  0.44088196  0.75891580  0.55462074    -0.73100
O655        O  0.35951679  0.70861882  0.56665507    -0.73700
O656        O  0.32711899  0.77222567  0.58078270    -0.73100
O657        O  0.26091280  0.75155923  0.55321981    -0.73800
O658        O  0.36170226  0.74461799  0.58241474    -0.73200
O659        O  0.26751724  0.77709323  0.56327636    -0.73700
O660        O  0.34850502  0.80409900  0.56358777    -0.73600
O661        O  0.38923493  0.79601984  0.55189634    -0.73400
C662        C  0.35591498  0.74878077  0.53293528     0.78400
C663        C  0.33233269  0.70128753  0.56152671     0.78900
C664        C  0.45712043  0.74870131  0.56113220     0.77900
C665        C  0.34166437  0.75866754  0.58605021     0.78200
C666        C  0.24650508  0.76575309  0.55810122     0.79400
C667        C  0.37419191  0.80891903  0.55741613     0.78400
Zn668      Zn  0.81712647  0.73642123  0.57154989     1.49700
Zn669      Zn  0.88638072  0.73144404  0.55679735     1.49400
Zn670      Zn  0.82839203  0.76974655  0.55522827     1.49100
Zn671      Zn  0.88598966  0.76529869  0.57331652     1.49500
O672        O  0.85463944  0.75081970  0.56401890    -1.82900
O673        O  0.82167204  0.70753771  0.56975132    -0.73500
O674        O  0.88109994  0.73649531  0.54240427    -0.73300
O675        O  0.76890258  0.76718956  0.55641713    -0.72800
O676        O  0.86969325  0.70252143  0.55948464    -0.73500
O677        O  0.76479323  0.74297583  0.56723282    -0.73100
O678        O  0.84408443  0.76342102  0.54144008    -0.73700
O679        O  0.88500009  0.79395780  0.57029560    -0.73100
O680        O  0.94339010  0.73628915  0.55975528    -0.73800
O681        O  0.84684032  0.79837916  0.55762966    -0.73200
O682        O  0.94163160  0.75872013  0.57155276    -0.73700
O683        O  0.86869305  0.76246839  0.58726328    -0.73600
O684        O  0.81903968  0.74203285  0.58571626    -0.73400
C685        C  0.84245953  0.69584721  0.56481324     0.78400
C686        C  0.86469852  0.75003260  0.53744687     0.78900
C687        C  0.74885311  0.75505868  0.56146496     0.77900
C688        C  0.87011257  0.80521485  0.56396940     0.78200
C689        C  0.96045212  0.74809326  0.56558504     0.79400
C690        C  0.84074506  0.75278680  0.59093943     0.78400
Zn691      Zn  0.23443557  0.73618805  0.69160782     1.49700
Zn692      Zn  0.22918392  0.76857284  0.67453509     1.49400
Zn693      Zn  0.28869108  0.77495064  0.69228590     1.49100
Zn694      Zn  0.30116755  0.74071133  0.67654129     1.49500
O695        O  0.26327092  0.75531797  0.68382689    -1.82900
O696        O  0.17789881  0.73919296  0.68898335    -0.73500
O697        O  0.22484201  0.79763732  0.67781691    -0.73300
O698        O  0.28240874  0.76710670  0.70636415    -0.72800
O699        O  0.17470925  0.75847333  0.67595218    -0.73500
O700        O  0.24281861  0.74128551  0.70570634    -0.73100
O701        O  0.26244802  0.80202545  0.69067995    -0.73700
O702        O  0.35326031  0.75035339  0.67959774    -0.73100
O703        O  0.24724931  0.76557434  0.66058701    -0.73800
O704        O  0.34709534  0.77587185  0.68964841    -0.73200
O705        O  0.29581612  0.74451839  0.66236792    -0.73700
O706        O  0.30075877  0.71181870  0.67952378    -0.73600
O707        O  0.25136865  0.70763358  0.68945663    -0.73400
C708        C  0.15847666  0.74818451  0.68251834     0.78400
C709        C  0.23774143  0.80856177  0.68460537     0.78900
C710        C  0.26283756  0.75358620  0.71055484     0.77900
C711        C  0.36803198  0.76420237  0.68458641     0.78200
C712        C  0.27449813  0.75518431  0.65701010     0.79400
C713        C  0.27970528  0.70060689  0.68469048     0.78400
Zn714      Zn  0.79474128  0.77769041  0.68149754     1.49700
Zn715      Zn  0.72834747  0.77151351  0.69694506     1.49400
Zn716      Zn  0.73588933  0.74029369  0.67936550     1.49100
Zn717      Zn  0.79766376  0.74208712  0.69668301     1.49500
O718        O  0.76405638  0.75779132  0.68848444    -1.82900
O719        O  0.77430804  0.80579575  0.68367420    -0.73500
O720        O  0.67482875  0.76490912  0.69323449    -0.73300
O721        O  0.75140482  0.74697247  0.66551665    -0.72800
O722        O  0.73076359  0.80093715  0.69518429    -0.73500
O723        O  0.79191968  0.77231039  0.66729111    -0.73100
O724        O  0.67751469  0.74404149  0.68081279    -0.73700
O725        O  0.79227492  0.71340206  0.69355042    -0.73100
O726        O  0.73496729  0.76459871  0.71097724    -0.73800
O727        O  0.74983182  0.71107720  0.68161151    -0.73200
O728        O  0.78676151  0.74530050  0.71095106    -0.73700
O729        O  0.85266032  0.74842966  0.69393111    -0.73600
O730        O  0.85187743  0.77487630  0.68439746    -0.73400
C731        C  0.74828599  0.81241813  0.68935693     0.78400
C732        C  0.65824691  0.75462281  0.68676174     0.78900
C733        C  0.77443791  0.75983033  0.66195503     0.77900
C734        C  0.77342956  0.70300772  0.68750377     0.78200
C735        C  0.75978514  0.75418902  0.71546193     0.79400
C736        C  0.87029812  0.76145395  0.68896118     0.78400
Zn737      Zn  0.50657627  0.51100422  0.92832309     1.49700
Zn738      Zn  0.50923060  0.48197669  0.94627129     1.49400
Zn739      Zn  0.44810704  0.51898247  0.94579560     1.49100
Zn740      Zn  0.43865801  0.48189657  0.93203193     1.49500
O741        O  0.47584987  0.49858297  0.93828577    -1.82900
O742        O  0.56256634  0.50351745  0.92917604    -0.73500
O743        O  0.50023424  0.48902469  0.96021967    -0.73300
O744        O  0.46788642  0.54694583  0.94266306    -0.72800
O745        O  0.56536772  0.48855023  0.94343781    -0.73500
O746        O  0.50876454  0.53985229  0.93084026    -0.73100
O747        O  0.46069953  0.51501814  0.95980805    -0.73700
O748        O  0.38701255  0.48598208  0.93766784    -0.73100
O749        O  0.49900469  0.45212312  0.94411254    -0.73800
O750        O  0.38916602  0.51572365  0.94459688    -0.73200
O751        O  0.45124303  0.45335861  0.93347655    -0.73700
O752        O  0.43383533  0.48790892  0.91797249    -0.73600
O753        O  0.48450315  0.50700121  0.91499666    -0.73400
C754        C  0.58202079  0.49673605  0.93624946     0.78400
C755        C  0.48136369  0.50271937  0.96449106     0.78900
C756        C  0.49389132  0.55225978  0.93665961     0.77900
C757        C  0.37033843  0.50039314  0.94184910     0.78200
C758        C  0.47477116  0.44342372  0.93857568     0.79400
C759        C  0.45437598  0.49788746  0.91212746     0.78400
Zn760      Zn  0.93940537  0.48435439  0.92852833     1.49700
Zn761      Zn  0.01372954  0.51001472  0.92631845     1.49400
Zn762      Zn  0.95202739  0.52003692  0.94345582     1.49100
Zn763      Zn  0.00465538  0.48030061  0.94415945     1.49500
O764        O  0.97753636  0.49893762  0.93575629    -1.82900
O765        O  0.94254823  0.48951465  0.91442802    -0.73500
O766        O  0.02020381  0.53876472  0.92912432    -0.73300
O767        O  0.89305156  0.52054821  0.94086002    -0.72800
O768        O  0.99530748  0.50751711  0.91235004    -0.73500
O769        O  0.88719871  0.49322713  0.93202214    -0.73100
O770        O  0.97830402  0.54683067  0.94062928    -0.73700
O771        O  0.99766519  0.48804173  0.95809326    -0.73100
O772        O  0.06753687  0.49913392  0.92817163    -0.73800
O773        O  0.96019334  0.51482024  0.95786777    -0.73200
O774        O  0.06178629  0.48155864  0.94164882    -0.73700
O775        O  0.98604046  0.45187977  0.94227925    -0.73600
O776        O  0.94211734  0.45517794  0.93075809    -0.73400
C777        C  0.96532558  0.49904436  0.90894629     0.78400
C778        C  0.00578562  0.55147678  0.93488286     0.78900
C779        C  0.87213471  0.50789969  0.93635504     0.77900
C780        C  0.97971655  0.50186149  0.96249014     0.78200
C781        C  0.08261714  0.48935851  0.93509130     0.79400
C782        C  0.96120877  0.44433895  0.93654272     0.78400
Zn783      Zn  0.42939894  0.48689314  0.82166466     1.49700
Zn784      Zn  0.41948806  0.52184177  0.80645251     1.49400
Zn785      Zn  0.36537604  0.48256421  0.80567119     1.49100
Zn786      Zn  0.35624913  0.51372739  0.82306339     1.49500
O787        O  0.39242283  0.50138014  0.81409097    -1.82900
O788        O  0.48195176  0.49546417  0.81850637    -0.73500
O789        O  0.40890185  0.51781116  0.79230543    -0.73300
O790        O  0.38376176  0.45405310  0.80762957    -0.72800
O791        O  0.47803365  0.52017726  0.80801461    -0.73500
O792        O  0.42886595  0.45805770  0.81881254    -0.73100
O793        O  0.37486243  0.48989067  0.79178505    -0.73700
O794        O  0.30218435  0.50530155  0.82009163    -0.73100
O795        O  0.39954731  0.54926622  0.80981975    -0.73800
O796        O  0.30761128  0.48452860  0.80770918    -0.73200
O797        O  0.35589604  0.54303688  0.82115985    -0.73700
O798        O  0.36886758  0.50853904  0.83711476    -0.73600
O799        O  0.42204283  0.49055982  0.83578670    -0.73400
C800        C  0.49799886  0.50817797  0.81308112     0.78400
C801        C  0.39152199  0.50433383  0.78754760     0.78900
C802        C  0.41005422  0.44697765  0.81307951     0.77900
C803        C  0.28691033  0.49441171  0.81361725     0.78200
C804        C  0.37348654  0.55515249  0.81566594     0.79400
C805        C  0.39697051  0.49929759  0.84096250     0.78400
Zn806      Zn  0.85967655  0.51268913  0.82029614     1.49700
Zn807      Zn  0.92856679  0.48398078  0.81794805     1.49400
Zn808      Zn  0.86151515  0.48208599  0.80254993     1.49100
Zn809      Zn  0.91936646  0.52022235  0.80284113     1.49500
O810        O  0.89236505  0.49992365  0.81073365    -1.82900
O811        O  0.87524776  0.50785132  0.83417717    -0.73500
O812        O  0.91952384  0.45495374  0.81616291    -0.73300
O813        O  0.80457113  0.48607432  0.80517958    -0.72800
O814        O  0.92703068  0.48915471  0.83220377    -0.73500
O815        O  0.80512254  0.50489374  0.81833531    -0.73100
O816        O  0.87505064  0.45281761  0.80468638    -0.73700
O817        O  0.90692674  0.51571660  0.78853388    -0.73100
O818        O  0.98141724  0.48980168  0.81340071    -0.73800
O819        O  0.86945812  0.48894120  0.78854954    -0.73200
O820        O  0.97832469  0.51702588  0.80433644    -0.73700
O821        O  0.90012493  0.54846507  0.80631692    -0.73600
O822        O  0.85894715  0.54177724  0.81815460    -0.73400
C823        C  0.90384940  0.49846697  0.83769032     0.78400
C824        C  0.89839969  0.44461573  0.81058940     0.78900
C825        C  0.78685602  0.49543915  0.81184042     0.77900
C826        C  0.88709411  0.50268493  0.78401719     0.78200
C827        C  0.99773552  0.50316747  0.80837700     0.79400
C828        C  0.87480313  0.55411954  0.81246637     0.78400
Zn829      Zn  0.11031344  0.76013791  0.94238833     1.49700
Zn830      Zn  0.10954917  0.72837033  0.92509055     1.49400
Zn831      Zn  0.17748478  0.75858728  0.92691078     1.49100
Zn832      Zn  0.16991164  0.72324350  0.94271190     1.49500
O833        O  0.14198767  0.74246111  0.93438664    -1.82900
O834        O  0.05369659  0.75500119  0.93996392    -0.73500
O835        O  0.12634967  0.73162900  0.91105276    -0.73300
O836        O  0.17067833  0.78773566  0.92952878    -0.72800
O837        O  0.05376627  0.73548310  0.92701394    -0.73500
O838        O  0.12285579  0.78924558  0.94017532    -0.73100
O839        O  0.17244874  0.75419722  0.91260612    -0.73700
O840        O  0.22834589  0.72515204  0.94015225    -0.73100
O841        O  0.11009714  0.69955508  0.92803246    -0.73800
O842        O  0.23144063  0.75086953  0.93011092    -0.73200
O843        O  0.14963385  0.69489700  0.94042564    -0.73700
O844        O  0.16035070  0.72940680  0.95698278    -0.73600
O845        O  0.11950538  0.75475071  0.95648020    -0.73400
C846        C  0.03573601  0.74489398  0.93360819     0.78400
C847        C  0.15209291  0.74279319  0.90734585     0.78900
C848        C  0.14815211  0.79774990  0.93492421     0.77900
C849        C  0.24788962  0.73739014  0.93504936     0.78200
C850        C  0.12538536  0.68820097  0.93427691     0.79400
C851        C  0.13941309  0.74228226  0.96126558     0.78400
Zn852      Zn  0.61309115  0.72652601  0.92821366     1.49700
Zn853      Zn  0.68525124  0.75383756  0.93091296     1.49400
Zn854      Zn  0.61347389  0.76050947  0.94422216     1.49100
Zn855      Zn  0.66782795  0.72088950  0.94677109     1.49500
O856        O  0.64471316  0.74028566  0.93769976    -1.82900
O857        O  0.63333582  0.72895310  0.91457731    -0.73500
O858        O  0.68709455  0.78276500  0.93365245    -0.73300
O859        O  0.55647779  0.75696634  0.94100225    -0.72800
O860        O  0.68203050  0.74969938  0.91681695    -0.73500
O861        O  0.55767491  0.73499677  0.92904376    -0.73100
O862        O  0.63269405  0.78891538  0.94155517    -0.73700
O863        O  0.65497305  0.72940810  0.96029980    -0.73100
O864        O  0.73578963  0.74301479  0.93434717    -0.73800
O865        O  0.61812231  0.75618736  0.95847877    -0.73200
O866        O  0.72706850  0.71964336  0.94543426    -0.73700
O867        O  0.64444615  0.69319447  0.94486540    -0.73600
O868        O  0.61079606  0.69792105  0.93142708    -0.73400
C869        C  0.66159969  0.73896775  0.91129019     0.78400
C870        C  0.66411495  0.79488442  0.93768520     0.78900
C871        C  0.53900502  0.74612204  0.93483043     0.77900
C872        C  0.63494099  0.74351832  0.96384233     0.78200
C873        C  0.74905763  0.72979348  0.93992452     0.79400
C874        C  0.62237348  0.68668104  0.93819595     0.78400
Zn875      Zn  0.28169043  0.73386901  0.80245378     1.49700
Zn876      Zn  0.21124615  0.72578349  0.81653658     1.49400
Zn877      Zn  0.26665967  0.76405707  0.81996318     1.49100
Zn878      Zn  0.21039096  0.76109261  0.80134520     1.49500
O879        O  0.24250245  0.74637920  0.81026193    -1.82900
O880        O  0.28545187  0.70534598  0.80567917    -0.73500
O881        O  0.20956714  0.73081050  0.83081635    -0.73300
O882        O  0.32609170  0.76230909  0.81907764    -0.72800
O883        O  0.23453409  0.69837724  0.81482598    -0.73500
O884        O  0.33301332  0.74440594  0.80570245    -0.73100
O885        O  0.24915440  0.75614647  0.83360757    -0.73700
O886        O  0.21282674  0.78966593  0.80432834    -0.73100
O887        O  0.15540492  0.72685682  0.81232339    -0.73800
O888        O  0.24882888  0.79275651  0.81752057    -0.73200
O889        O  0.15524372  0.75379934  0.80309726    -0.73700
O890        O  0.22480184  0.75751608  0.78734438    -0.73600
O891        O  0.27453744  0.73705107  0.78814347    -0.73400
C892        C  0.26566549  0.69316678  0.81062481     0.78400
C893        C  0.22567468  0.74288634  0.83662902     0.78900
C894        C  0.34743978  0.75425215  0.81263375     0.77900
C895        C  0.22752733  0.80032351  0.81093285     0.78200
C896        C  0.13740970  0.74002485  0.80750208     0.79400
C897        C  0.25102573  0.74737409  0.78321224     0.78400
Zn898      Zn  0.70815641  0.76267178  0.82217675     1.49700
Zn899      Zn  0.77795978  0.73353971  0.82358751     1.49400
Zn900      Zn  0.71510442  0.72737407  0.80672994     1.49100
Zn901      Zn  0.77343025  0.76572387  0.80679252     1.49500
O902        O  0.74361967  0.74713189  0.81464635    -1.82900
O903        O  0.71077237  0.75604259  0.83613219    -0.73500
O904        O  0.78046487  0.70499150  0.82021349    -0.73300
O905        O  0.65622345  0.72949988  0.80912026    -0.72800
O906        O  0.76010931  0.73533971  0.83743454    -0.73500
O907        O  0.65498967  0.75640556  0.81836157    -0.73100
O908        O  0.73637933  0.69900167  0.80895899    -0.73700
O909        O  0.76297034  0.76013922  0.79282336    -0.73100
O910        O  0.83300220  0.74203710  0.82196183    -0.73800
O911        O  0.72434252  0.73377927  0.79254996    -0.73200
O912        O  0.83006909  0.76073487  0.80878872    -0.73700
O913        O  0.76060309  0.79502120  0.80940752    -0.73600
O914        O  0.71441140  0.79187379  0.82035069    -0.73400
C915        C  0.73197943  0.74472965  0.84119361     0.78400
C916        C  0.76388166  0.69312065  0.81441859     0.78900
C917        C  0.63750833  0.74301600  0.81362710     0.77900
C918        C  0.74383211  0.74711142  0.78817149     0.78200
C919        C  0.84952605  0.75130354  0.81510357     0.79400
C920        C  0.73531360  0.80272632  0.81496709     0.78400
Zn921      Zn  0.42562302  0.22252217  0.93241253     1.49700
Zn922      Zn  0.37031912  0.26143114  0.93226180     1.49400
Zn923      Zn  0.36380036  0.22802321  0.94878194     1.49100
Zn924      Zn  0.43563150  0.25640886  0.94840928     1.49500
O925        O  0.39882503  0.24223585  0.94036656    -1.82900
O926        O  0.41859895  0.22913465  0.91848891    -0.73500
O927        O  0.31195615  0.25743788  0.93374269    -0.73300
O928        O  0.36641345  0.19867569  0.94704445    -0.72800
O929        O  0.38392181  0.25685216  0.91817796    -0.73500
O930        O  0.40527846  0.19454215  0.93449080    -0.73100
O931        O  0.30983141  0.23450775  0.94525269    -0.73700
O932        O  0.42360921  0.25405145  0.96266562    -0.73100
O933        O  0.38667009  0.29006844  0.93518652    -0.73800
O934        O  0.37236285  0.23423182  0.96274427    -0.73200
O935        O  0.43570146  0.28520868  0.94522450    -0.73700
O936        O  0.48943421  0.24752933  0.94551770    -0.73600
O937        O  0.48337614  0.22389853  0.93444331    -0.73400
C938        C  0.40300432  0.24331725  0.91385764     0.78400
C939        C  0.29291960  0.24565948  0.93918474     0.78900
C940        C  0.38190686  0.18753982  0.94073287     0.77900
C941        C  0.39717776  0.24474143  0.96718100     0.78200
C942        C  0.41511680  0.29669646  0.94009790     0.79400
C943        C  0.50436652  0.23518387  0.93964092     0.78400
Zn944      Zn  0.86042076  0.22864459  0.94588524     1.49700
Zn945      Zn  0.93120789  0.25726934  0.94626830     1.49400
Zn946      Zn  0.92734428  0.22170239  0.93079596     1.49100
Zn947      Zn  0.87099188  0.26023435  0.92886891     1.49500
O948        O  0.89765170  0.24202856  0.93782642    -1.82900
O949        O  0.86669768  0.23433459  0.95999701    -0.73500
O950        O  0.98586666  0.24908596  0.94431671    -0.73300
O951        O  0.90343746  0.19369147  0.93222964    -0.72800
O952        O  0.91714960  0.25455287  0.96036006    -0.73500
O953        O  0.86077889  0.19956276  0.94380747    -0.73100
O954        O  0.98395962  0.22260478  0.93476195    -0.73700
O955        O  0.89122186  0.25569447  0.91528144    -0.73100
O956        O  0.92889551  0.28610241  0.94309609    -0.73800
O957        O  0.92864197  0.22907091  0.91668569    -0.73200
O958        O  0.88280893  0.28917687  0.93205997    -0.73700
O959        O  0.81264306  0.25563622  0.92913245    -0.73600
O960        O  0.80758103  0.23568137  0.94184926    -0.73400
C961        C  0.89051501  0.24501767  0.96467263     0.78400
C962        C  0.00293540  0.23534187  0.93967787     0.78900
C963        C  0.87674566  0.18769207  0.93790561     0.77900
C964        C  0.91413532  0.24294945  0.91159239     0.78200
C965        C  0.90833248  0.29681261  0.93757065     0.79400
C966        C  0.79233345  0.24533370  0.93496587     0.78400
Zn967      Zn  0.51086263  0.23218559  0.82556620     1.49700
Zn968      Zn  0.44341905  0.26189270  0.82281351     1.49400
Zn969      Zn  0.51307180  0.26381133  0.80839850     1.49100
Zn970      Zn  0.45351293  0.22639925  0.80731919     1.49500
O971        O  0.48014754  0.24581885  0.81585540    -1.82900
O972        O  0.49254140  0.23660620  0.83929718    -0.73500
O973        O  0.45031229  0.29072030  0.82047181    -0.73300
O974        O  0.56919826  0.25901379  0.81149479    -0.72800
O975        O  0.44389101  0.25733190  0.83705566    -0.73500
O976        O  0.56666569  0.23926110  0.82431641    -0.73100
O977        O  0.49990892  0.29293015  0.81046965    -0.73700
O978        O  0.46565539  0.23298299  0.79313362    -0.73100
O979        O  0.39119550  0.25570685  0.81838090    -0.73800
O980        O  0.50558529  0.25870078  0.79428027    -0.73200
O981        O  0.39410648  0.22897756  0.80897934    -0.73700
O982        O  0.47385860  0.19798854  0.81004901    -0.73600
O983        O  0.51072103  0.20325131  0.82291751    -0.73400
C984        C  0.46487052  0.24698153  0.84263716     0.78400
C985        C  0.47315950  0.30109080  0.81538082     0.78900
C986        C  0.58590156  0.24896481  0.81807157     0.77900
C987        C  0.48642481  0.24642434  0.78919401     0.78200
C988        C  0.37476405  0.24259276  0.81326216     0.79400
C989        C  0.49702347  0.19161083  0.81655280     0.78400
Zn990      Zn  0.01524564  0.22972113  0.80563751     1.49700
Zn991      Zn  0.94193310  0.25658407  0.80493874     1.49400
Zn992      Zn  0.95280426  0.22404213  0.82177439     1.49100
Zn993      Zn  0.00591534  0.26384564  0.82163584     1.49500
O994        O  0.97876643  0.24378499  0.81364331    -1.82900
O995        O  0.00621149  0.23314736  0.79166814    -0.73500
O996        O  0.88855259  0.24681673  0.80759844    -0.73300
O997        O  0.97579590  0.19624500  0.82029327    -0.72800
O998        O  0.95378072  0.25178448  0.79077918    -0.73500
O999        O  0.01678767  0.20081712  0.80818794    -0.73100
O1000       O  0.89513862  0.22424602  0.81921106    -0.73700
O1001       O  0.99355794  0.25927290  0.83591075    -0.73100
O1002       O  0.94098701  0.28603910  0.80729362    -0.73800
O1003       O  0.95872711  0.23154642  0.83566493    -0.73200
O1004       O  0.98629256  0.29166016  0.81832371    -0.73700
O1005       O  0.06498793  0.26227811  0.81959082    -0.73600
O1006       O  0.06771941  0.23916379  0.80821415    -0.73400
C1007       C  0.98097382  0.24217258  0.78672063     0.78400
C1008       C  0.87407433  0.23445874  0.81352362     0.78900
C1009       C  0.00107543  0.18964291  0.81441455     0.77900
C1010       C  0.97458140  0.24572021  0.84027317     0.78200
C1011       C  0.95975648  0.29793757  0.81269267     0.79400
C1012       C  0.08438594  0.25144551  0.81375405     0.78400
Zn1013     Zn  0.26946845  0.97647987  0.94373905     1.49700
Zn1014     Zn  0.20374007  0.98358005  0.92862366     1.49400
Zn1015     Zn  0.21740250  0.01727351  0.94416111     1.49100
Zn1016     Zn  0.27936685  0.00907235  0.92724318     1.49500
O1017       O  0.24266574  0.99675177  0.93610108    -1.82900
O1018       O  0.24781774  0.94846859  0.94147990    -0.73500
O1019       O  0.15208208  0.99406983  0.93148701    -0.73300
O1020       O  0.22806436  0.01075040  0.95804747    -0.72800
O1021       O  0.20097753  0.95455855  0.93101762    -0.73500
O1022       O  0.26231139  0.98285247  0.95772010    -0.73100
O1023       O  0.15834482  0.01819277  0.94226263    -0.73700
O1024       O  0.28391147  0.03774979  0.93026252    -0.73100
O1025       O  0.21079608  0.98851913  0.91475739    -0.73800
O1026       O  0.24153952  0.04457354  0.94182097    -0.73200
O1027       O  0.26381376  0.00666306  0.91321243    -0.73700
O1028       O  0.33318943  0.99939154  0.92952664    -0.73600
O1029       O  0.32754181  0.97801439  0.94162372    -0.73400
C1030       C  0.21953142  0.94250779  0.93631752     0.78400
C1031       C  0.13737715  0.00746529  0.93675545     0.78900
C1032       C  0.24623030  0.99691842  0.96236314     0.77900
C1033       C  0.26881014  0.04987960  0.93618060     0.78200
C1034       C  0.23443954  0.99814235  0.90955992     0.79400
C1035       C  0.34840526  0.98818962  0.93586658     0.78400
Zn1036     Zn  0.70442595  0.97973625  0.92970651     1.49700
Zn1037     Zn  0.77310601  0.00872512  0.92633764     1.49400
Zn1038     Zn  0.71679328  0.01506760  0.94483234     1.49100
Zn1039     Zn  0.77542638  0.97767010  0.94416773     1.49500
O1040       O  0.74269136  0.99545621  0.93638966    -1.82900
O1041       O  0.70092516  0.98565372  0.91548407    -0.73500
O1042       O  0.77449684  0.03802987  0.92896572    -0.73300
O1043       O  0.65746673  0.01296652  0.94367734    -0.72800
O1044       O  0.75205747  0.00445426  0.91258839    -0.73500
O1045       O  0.65281751  0.98511418  0.93514772    -0.73100
O1046       O  0.73818938  0.04292645  0.94201213    -0.73700
O1047       O  0.77004800  0.98397683  0.95847489    -0.73100
O1048       O  0.82924432  0.00113486  0.92757319    -0.73800
O1049       O  0.72927733  0.00941338  0.95893464    -0.73200
O1050       O  0.83157729  0.98266960  0.94086231    -0.73700
O1051       O  0.76136877  0.94831316  0.94198849    -0.73600
O1052       O  0.71363596  0.95076691  0.93138244    -0.73400
C1053       C  0.72195508  0.99535076  0.90961544     0.78400
C1054       C  0.76127189  0.04940595  0.93552419     0.78900
C1055       C  0.63734877  0.99880661  0.94012119     0.77900
C1056       C  0.75099876  0.99692729  0.96321703     0.78200
C1057       C  0.84847526  0.99221142  0.93412130     0.79400
C1058       C  0.73588151  0.94024644  0.93658502     0.78400
Zn1059     Zn  0.16313533  0.01957490  0.80592655     1.49700
Zn1060     Zn  0.10596094  0.01143832  0.82378760     1.49400
Zn1061     Zn  0.10449887  0.98074088  0.80634286     1.49100
Zn1062     Zn  0.17565629  0.98363867  0.82017352     1.49500
O1063       O  0.13702576  0.99905463  0.81382719    -1.82900
O1064       O  0.14267210  0.04744187  0.80929811    -0.73500
O1065       O  0.05054080  0.00373038  0.82277307    -0.73300
O1066       O  0.10943755  0.98820600  0.79238963    -0.72800
O1067       O  0.10372819  0.04025428  0.82149814    -0.73500
O1068       O  0.14832268  0.01452424  0.79200748    -0.73100
O1069       O  0.04798290  0.98438958  0.80976985    -0.73700
O1070       O  0.16995488  0.95514967  0.81784145    -0.73100
O1071       O  0.12709518  0.00770066  0.83718683    -0.73800
O1072       O  0.12060619  0.95155308  0.80782540    -0.73200
O1073       O  0.17737553  0.98845649  0.83417872    -0.73700
O1074       O  0.22738677  0.99017597  0.81556736    -0.73600
O1075       O  0.22298135  0.01784508  0.80701141    -0.73400
C1076       C  0.11791985  0.05274366  0.81564610     0.78400
C1077       C  0.03135610  0.99428689  0.81642944     0.78900
C1078       C  0.12694970  0.00181092  0.78773451     0.77900
C1079       C  0.14839329  0.94421921  0.81270513     0.78200
C1080       C  0.15697410  0.99841229  0.84002703     0.79400
C1081       C  0.24320530  0.00406651  0.81085679     0.78400
Zn1082     Zn  0.66780441  0.02085894  0.81958445     1.49700
Zn1083     Zn  0.67493049  0.98829834  0.80235565     1.49400
Zn1084     Zn  0.61348717  0.98219583  0.82000085     1.49100
Zn1085     Zn  0.60421691  0.01649153  0.80359593     1.49500
O1086       O  0.64018345  0.00164516  0.81150968    -1.82900
O1087       O  0.72442406  0.02067740  0.81612746    -0.73500
O1088       O  0.67819780  0.95918056  0.80548034    -0.73300
O1089       O  0.62610222  0.98718196  0.83438503    -0.72800
O1090       O  0.72874564  0.99869927  0.80415750    -0.73500
O1091       O  0.66533314  0.01310373  0.83357789    -0.73100
O1092       O  0.63522680  0.95441121  0.81720760    -0.73700
O1093       O  0.55165497  0.00799569  0.80693103    -0.73100
O1094       O  0.65887843  0.99114362  0.78818915    -0.73800
O1095       O  0.55409190  0.98407322  0.81794579    -0.73200
O1096       O  0.60975869  0.01190418  0.78937191    -0.73700
O1097       O  0.60512919  0.04570167  0.80615582    -0.73600
O1098       O  0.64470641  0.04864927  0.81868882    -0.73400
C1099       C  0.74438760  0.01080194  0.81005124     0.78400
C1100       C  0.66154014  0.94785550  0.81155278     0.78900
C1101       C  0.64811683  0.99984074  0.83850482     0.77900
C1102       C  0.53478110  0.99568021  0.81243329     0.78200
C1103       C  0.63204010  0.00125331  0.78425063     0.79400
C1104       C  0.62050916  0.05608739  0.81277765     0.78400
Zn1105     Zn  0.13696973  0.48506835  0.19578238     1.49700
Zn1106     Zn  0.06459425  0.51185745  0.19626654     1.49400
Zn1107     Zn  0.12367448  0.51494794  0.17812912     1.49100
Zn1108     Zn  0.07043892  0.47616408  0.18084999     1.49500
O1109       O  0.09866714  0.49720408  0.18763130    -1.82900
O1110       O  0.12920744  0.48942080  0.20996881    -0.73500
O1111       O  0.06806674  0.54085540  0.19338178    -0.73300
O1112       O  0.18286729  0.51214477  0.17878912    -0.72800
O1113       O  0.07758249  0.50863907  0.21052612    -0.73500
O1114       O  0.18818034  0.49538088  0.19252232    -0.73100
O1115       O  0.10941204  0.54364012  0.18117466    -0.73700
O1116       O  0.06759741  0.48236754  0.16661654    -0.73100
O1117       O  0.01000477  0.50325435  0.19397638    -0.73800
O1118       O  0.10374449  0.50916926  0.16445392    -0.73200
O1119       O  0.01460463  0.47595455  0.18501394    -0.73700
O1120       O  0.09642582  0.44906002  0.18235789    -0.73600
O1121       O  0.14190821  0.45632083  0.19306672    -0.73400
C1122       C  0.10470860  0.49937751  0.21479157     0.78400
C1123       C  0.08665621  0.55145411  0.18735853     0.78900
C1124       C  0.20344854  0.50457860  0.18550749     0.77900
C1125       C  0.08116823  0.49581241  0.16111812     0.78200
C1126       C  0.99438014  0.48871559  0.18956467     0.79400
C1127       C  0.12556929  0.44403890  0.18743942     0.78400
Zn1128     Zn  0.63339993  0.48076497  0.19560228     1.49700
Zn1129     Zn  0.56602218  0.51089486  0.19538166     1.49400
Zn1130     Zn  0.62973394  0.51278839  0.17845894     1.49100
Zn1131     Zn  0.56899761  0.47575522  0.17975670     1.49500
O1132       O  0.59945459  0.49519048  0.18712508    -1.82900
O1133       O  0.62902475  0.48865777  0.20946946    -0.73500
O1134       O  0.56968326  0.53925919  0.19167372    -0.73300
O1135       O  0.68777111  0.50757152  0.17999018    -0.72800
O1136       O  0.57899886  0.50907848  0.20965161    -0.73500
O1137       O  0.68722256  0.48525915  0.19175187    -0.73100
O1138       O  0.61626756  0.54212148  0.18074901    -0.73700
O1139       O  0.57544930  0.48143992  0.16565805    -0.73100
O1140       O  0.51097331  0.50397793  0.19303950    -0.73800
O1141       O  0.61532311  0.50714456  0.16449885    -0.73200
O1142       O  0.51148481  0.47967956  0.18220158    -0.73700
O1143       O  0.58658170  0.44698059  0.18219545    -0.73600
O1144       O  0.62729648  0.45161535  0.19432113    -0.73400
C1145       C  0.60603536  0.49996979  0.21402996     0.78400
C1146       C  0.58989717  0.54982899  0.18600051     0.78900
C1147       C  0.70542757  0.49557574  0.18560358     0.77900
C1148       C  0.59327342  0.49428037  0.16059081     0.78200
C1149       C  0.49317781  0.49205642  0.18746940     0.79400
C1150       C  0.61031374  0.44012256  0.18841983     0.78400
Zn1151     Zn  0.97190781  0.48568425  0.05431054     1.49700
Zn1152     Zn  0.03641636  0.47917815  0.07038726     1.49400
Zn1153     Zn  0.04163949  0.51390178  0.05421750     1.49100
Zn1154     Zn  0.97992379  0.51725813  0.07170618     1.49500
O1155       O  0.00764559  0.49910369  0.06282179    -1.82900
O1156       O  0.96982440  0.45691423  0.05718584    -0.73500
O1157       O  0.09411467  0.48114412  0.06735552    -0.73300
O1158       O  0.02863364  0.51164861  0.03984524    -0.72800
O1159       O  0.01398667  0.45123151  0.06845799    -0.73500
O1160       O  0.98090342  0.48990400  0.04011353    -0.73100
O1161       O  0.09564536  0.50520241  0.05638532    -0.73700
O1162       O  0.99906112  0.54556059  0.06979333    -0.73100
O1163       O  0.03170793  0.48499654  0.08466896    -0.73800
O1164       O  0.04192462  0.54251208  0.05794337    -0.73200
O1165       O  0.99170868  0.51061267  0.08584458    -0.73700
O1166       O  0.92152797  0.51599359  0.06924615    -0.73600
O1167       O  0.91939973  0.49537302  0.05673563    -0.73400
C1168       C  0.98672063  0.44518359  0.06298225     0.78400
C1169       C  0.11291279  0.49289300  0.06184174     0.78900
C1170       C  0.00349578  0.50121888  0.03542770     0.77900
C1171       C  0.02462033  0.55301481  0.06423227     0.78200
C1172       C  0.01350526  0.49765241  0.08977652     0.79400
C1173       C  0.90261011  0.50664136  0.06275449     0.78400
Zn1174     Zn  0.53864147  0.51870658  0.05529631     1.49700
Zn1175     Zn  0.47294159  0.48732473  0.05562194     1.49400
Zn1176     Zn  0.54118834  0.48220806  0.07012586     1.49100
Zn1177     Zn  0.48013578  0.51835250  0.07332196     1.49500
O1178       O  0.50820216  0.50182681  0.06376138    -1.82900
O1179       O  0.52341167  0.51687744  0.04127263    -0.73500
O1180       O  0.47505908  0.45811797  0.05778124    -0.73300
O1181       O  0.59671087  0.48512926  0.06576334    -0.72800
O1182       O  0.48017539  0.49274903  0.04160433    -0.73500
O1183       O  0.59431142  0.51163814  0.05626543    -0.73100
O1184       O  0.52166178  0.45383710  0.06854388    -0.73700
O1185       O  0.49721273  0.51086027  0.08692139    -0.73100
O1186       O  0.41978416  0.49515663  0.05876078    -0.73800
O1187       O  0.54120424  0.48742549  0.08427491    -0.73200
O1188       O  0.42130275  0.51493359  0.07160407    -0.73700
O1189       O  0.49451102  0.54773927  0.07185813    -0.73600
O1190       O  0.53439660  0.54693279  0.05930757    -0.73400
C1191       C  0.50017227  0.50528844  0.03693470     0.78400
C1192       C  0.49463922  0.44690999  0.06328495     0.78900
C1193       C  0.61342572  0.49816637  0.06055016     0.77900
C1194       C  0.52266804  0.49870807  0.08999526     0.78200
C1195       C  0.40254715  0.50545200  0.06511028     0.79400
C1196       C  0.51690837  0.55649882  0.06590618     0.78400
Zn1197     Zn  0.29152286  0.23752405  0.19885137     1.49700
Zn1198     Zn  0.29093724  0.27280344  0.18311990     1.49400
Zn1199     Zn  0.23460555  0.23448358  0.18048398     1.49100
Zn1200     Zn  0.22106136  0.26570670  0.19751800     1.49500
O1201       O  0.25977501  0.25251397  0.18982224    -1.82900
O1202       O  0.34637251  0.24597030  0.19771173    -0.73500
O1203       O  0.29126606  0.26693986  0.16882578    -0.73300
O1204       O  0.25300361  0.20604023  0.18274610    -0.72800
O1205       O  0.34714241  0.27145950  0.18756141    -0.73500
O1206       O  0.29100148  0.20860220  0.19563571    -0.73100
O1207       O  0.25163521  0.24131345  0.16686160    -0.73700
O1208       O  0.16899544  0.25669058  0.19390974    -0.73100
O1209       O  0.26788733  0.30073409  0.18459399    -0.73800
O1210       O  0.17517859  0.23670171  0.18126509    -0.73200
O1211       O  0.21987712  0.29437537  0.19467293    -0.73700
O1212       O  0.22716509  0.26215007  0.21178791    -0.73600
O1213       O  0.27609408  0.24119047  0.21279331    -0.73400
C1214       C  0.36469030  0.25932037  0.19312593     0.78400
C1215       C  0.27461507  0.25427464  0.16339627     0.78900
C1216       C  0.27569083  0.19828176  0.18896123     0.77900
C1217       C  0.15407555  0.24622400  0.18727006     0.78200
C1218       C  0.23845457  0.30644507  0.18940586     0.79400
C1219       C  0.25017956  0.25173622  0.21681052     0.78400
Zn1220     Zn  0.78653955  0.27259113  0.19334030     1.49700
Zn1221     Zn  0.73142869  0.23314287  0.19534618     1.49400
Zn1222     Zn  0.72103365  0.26186879  0.17734831     1.49100
Zn1223     Zn  0.79338579  0.23484497  0.17913508     1.49500
O1224       O  0.75826497  0.25099151  0.18645934    -1.82900
O1225       O  0.78136571  0.26794335  0.20800367    -0.73500
O1226       O  0.67371159  0.23668147  0.19420437    -0.73300
O1227       O  0.71589620  0.29081735  0.17972808    -0.72800
O1228       O  0.74556033  0.24052673  0.20875189    -0.73500
O1229       O  0.76084902  0.29982529  0.19033877    -0.73100
O1230       O  0.66719743  0.25201953  0.18007876    -0.73700
O1231       O  0.78440582  0.23615388  0.16500525    -0.73100
O1232       O  0.74733735  0.20403206  0.19408970    -0.73800
O1233       O  0.73631969  0.25756762  0.16331066    -0.73200
O1234       O  0.79428414  0.20680092  0.18333243    -0.73700
O1235       O  0.84624787  0.24406964  0.18109320    -0.73600
O1236       O  0.84535617  0.27149197  0.18996109    -0.73400
C1237       C  0.76459232  0.25427929  0.21285321     0.78400
C1238       C  0.65258351  0.24410383  0.18759532     0.78900
C1239       C  0.73168078  0.30393818  0.18501174     0.77900
C1240       C  0.76227729  0.24641371  0.15968171     0.78200
C1241       C  0.77501289  0.19644904  0.18927260     0.79400
C1242       C  0.86389097  0.25816374  0.18524410     0.78400
Zn1243     Zn  0.33432145  0.27494935  0.07341412     1.49700
Zn1244     Zn  0.32902438  0.23995102  0.05774800     1.49400
Zn1245     Zn  0.40164440  0.26623173  0.05873885     1.49100
Zn1246     Zn  0.38751265  0.23487617  0.07577454     1.49500
O1247       O  0.36299760  0.25384241  0.06663277    -1.82900
O1248       O  0.27701694  0.27362055  0.07017696    -0.73500
O1249       O  0.34191754  0.24408330  0.04362395    -0.73300
O1250       O  0.40516052  0.29491367  0.06130030    -0.72800
O1251       O  0.27471681  0.24796395  0.06011188    -0.73500
O1252       O  0.35795999  0.30284740  0.07136134    -0.73100
O1253       O  0.39430490  0.26266338  0.04456824    -0.73700
O1254       O  0.44705437  0.23545109  0.07445968    -0.73100
O1255       O  0.33001601  0.21098236  0.06037866    -0.73800
O1256       O  0.45246293  0.25542383  0.06179607    -0.73200
O1257       O  0.36861920  0.20645075  0.07297616    -0.73700
O1258       O  0.37051210  0.24171806  0.08957943    -0.73600
O1259       O  0.33479842  0.26885808  0.08752773    -0.73400
C1260       C  0.25788238  0.26113254  0.06515757     0.78400
C1261       C  0.36946358  0.25340376  0.03956473     0.78900
C1262       C  0.38718785  0.30776624  0.06625336     0.77900
C1263       C  0.46758438  0.24410109  0.06803770     0.78200
C1264       C  0.34552801  0.19961132  0.06658629     0.79400
C1265       C  0.34868814  0.25538466  0.09294266     0.78400
Zn1266     Zn  0.82927940  0.23679509  0.05556515     1.49700
Zn1267     Zn  0.89905924  0.26526896  0.05605142     1.49400
Zn1268     Zn  0.83084942  0.27186913  0.07083789     1.49100
Zn1269     Zn  0.88989627  0.23442255  0.07322473     1.49500
O1270       O  0.86227103  0.25195882  0.06410180    -1.82900
O1271       O  0.83852296  0.24213569  0.04147155    -0.73500
O1272       O  0.89779557  0.29410349  0.05846445    -0.73300
O1273       O  0.77380107  0.26935433  0.06747255    -0.72800
O1274       O  0.89154069  0.26044716  0.04193798    -0.73500
O1275       O  0.77418722  0.24200036  0.05854840    -0.73100
O1276       O  0.85207768  0.30013494  0.06924708    -0.73700
O1277       O  0.87008857  0.23931052  0.08686132    -0.73100
O1278       O  0.95218546  0.25789055  0.05958238    -0.73800
O1279       O  0.83102880  0.26518099  0.08480833    -0.73200
O1280       O  0.94862001  0.23914681  0.07270187    -0.73700
O1281       O  0.87795637  0.20548741  0.07000476    -0.73600
O1282       O  0.83731237  0.20800909  0.05763465    -0.73400
C1283       C  0.86564245  0.25131149  0.03719032     0.78400
C1284       C  0.87979105  0.30610757  0.06390210     0.78900
C1285       C  0.75594276  0.25535253  0.06315766     0.77900
C1286       C  0.84603467  0.25195368  0.09016456     0.78200
C1287       C  0.96846517  0.24873831  0.06647800     0.79400
C1288       C  0.85628178  0.19756423  0.06361198     0.78400
Zn1289     Zn  0.39054899  0.98394120  0.17545960     1.49700
Zn1290     Zn  0.33084306  0.97886824  0.19325232     1.49400
Zn1291     Zn  0.38884048  0.01690176  0.19230755     1.49100
Zn1292     Zn  0.32142197  0.01348422  0.17754967     1.49500
O1293       O  0.35805575  0.99803337  0.18477913    -1.82900
O1294       O  0.38987985  0.95484355  0.17832522    -0.73500
O1295       O  0.34124789  0.98595958  0.20733968    -0.73300
O1296       O  0.44513593  0.01246879  0.18961612    -0.72800
O1297       O  0.35187898  0.95061238  0.19107524    -0.73500
O1298       O  0.44635472  0.99140910  0.17727383    -0.73100
O1299       O  0.38104209  0.01176193  0.20645414    -0.73700
O1300       O  0.32407889  0.04225564  0.18034327    -0.73100
O1301       O  0.27198503  0.97997524  0.19088468    -0.73800
O1302       O  0.37475664  0.04598925  0.18985545    -0.73200
O1303       O  0.26868581  0.00473316  0.18034480    -0.73700
O1304       O  0.32781612  0.01064131  0.16343918    -0.73600
O1305       O  0.37441658  0.98851555  0.16148005    -0.73400
C1306       C  0.37541462  0.94368728  0.18480676     0.78400
C1307       C  0.36191703  0.99924210  0.21141753     0.78900
C1308       C  0.46376926  0.00201258  0.18352761     0.77900
C1309       C  0.34674211  0.05337079  0.18508539     0.78200
C1310       C  0.25240807  0.99156170  0.18545267     0.79400
C1311       C  0.34893707  0.00012240  0.15798926     0.78400
Zn1312     Zn  0.82440284  0.01131600  0.19757997     1.49700
Zn1313     Zn  0.89530652  0.98338341  0.19654189     1.49400
Zn1314     Zn  0.82956266  0.97797866  0.18103917     1.49100
Zn1315     Zn  0.88449073  0.01673419  0.18004904     1.49500
O1316       O  0.85837518  0.99753483  0.18865968    -1.82900
O1317       O  0.83650302  0.00605100  0.21160941    -0.73500
O1318       O  0.89302125  0.95413646  0.19457941    -0.73300
O1319       O  0.77243725  0.97840339  0.18455610    -0.72800
O1320       O  0.89110680  0.98914577  0.21070401    -0.73500
O1321       O  0.76996908  0.00393167  0.19474664    -0.73100
O1322       O  0.85332935  0.95033867  0.18212483    -0.73700
O1323       O  0.86664602  0.01292222  0.16605215    -0.73100
O1324       O  0.94776269  0.99004722  0.19220199    -0.73800
O1325       O  0.83114567  0.98558040  0.16701999    -0.73200
O1326       O  0.94313224  0.01263371  0.18055335    -0.73700
O1327       O  0.87089365  0.04504231  0.18405862    -0.73600
O1328       O  0.82853813  0.04070138  0.19592074    -0.73400
C1329       C  0.86530297  0.99784654  0.21567652     0.78400
C1330       C  0.87783391  0.94332497  0.18809439     0.78900
C1331       C  0.75326316  0.99080719  0.18961657     0.77900
C1332       C  0.84574839  0.99961958  0.16206310     0.78200
C1333       C  0.96317794  0.00097879  0.18581759     0.79400
C1334       C  0.84777091  0.05205926  0.19038619     0.78400
Zn1335     Zn  0.29829187  0.97982122  0.06819045     1.49700
Zn1336     Zn  0.23635135  0.01661283  0.07039292     1.49400
Zn1337     Zn  0.29845223  0.01596488  0.05314133     1.49100
Zn1338     Zn  0.23119917  0.98485486  0.05340689     1.49500
O1339       O  0.26619132  0.99951312  0.06144638    -1.82900
O1340       O  0.29786833  0.98720477  0.08211441    -0.73500
O1341       O  0.24978792  0.04587899  0.06822704    -0.73300
O1342       O  0.35424476  0.00982146  0.05543182    -0.72800
O1343       O  0.25383125  0.01096117  0.08408851    -0.73500
O1344       O  0.35495297  0.98257269  0.06442798    -0.73100
O1345       O  0.29203120  0.04491630  0.05615526    -0.73700
O1346       O  0.24100492  0.98880586  0.03944423    -0.73100
O1347       O  0.17746217  0.01208303  0.06897287    -0.73800
O1348       O  0.28727960  0.01148358  0.03902383    -0.73200
O1349       O  0.17754203  0.99235963  0.05615376    -0.73700
O1350       O  0.23244739  0.95594239  0.05605487    -0.73600
O1351       O  0.27821077  0.95091999  0.06689907    -0.73400
C1352       C  0.27991922  0.99952027  0.08744637     0.78400
C1353       C  0.27287886  0.05461317  0.06242687     0.78900
C1354       C  0.37271245  0.99626741  0.05985878     0.77900
C1355       C  0.26385652  0.99988960  0.03473044     0.78200
C1356       C  0.15935792  0.00202369  0.06257346     0.79400
C1357       C  0.25091646  0.94431162  0.06158330     0.78400
Zn1358     Zn  0.80848813  0.01183384  0.07049559     1.49700
Zn1359     Zn  0.73274928  0.98748771  0.07335964     1.49400
Zn1360     Zn  0.74036529  0.01773594  0.05543437     1.49100
Zn1361     Zn  0.78979797  0.97778544  0.05514724     1.49500
O1362       O  0.76774089  0.99852000  0.06354000    -1.82900
O1363       O  0.80480138  0.00893001  0.08477801    -0.73500
O1364       O  0.67877205  0.99847289  0.07163699    -0.73300
O1365       O  0.75943733  0.04579784  0.05781354    -0.72800
O1366       O  0.75179491  0.99138453  0.08732563    -0.73500
O1367       O  0.80956120  0.04057745  0.06744092    -0.73100
O1368       O  0.68319450  0.01582354  0.05801742    -0.73700
O1369       O  0.78267367  0.98444762  0.04089664    -0.73100
O1370       O  0.72547851  0.95840433  0.07071270    -0.73800
O1371       O  0.74848224  0.01220764  0.04118968    -0.73200
O1372       O  0.76050591  0.95211045  0.05754428    -0.73700
O1373       O  0.84826170  0.97508821  0.05732720    -0.73600
O1374       O  0.85922891  0.00063508  0.06715878    -0.73400
C1375       C  0.78170981  0.00031562  0.09052507     0.78400
C1376       C  0.66305476  0.00802100  0.06472459     0.78900
C1377       C  0.78847987  0.05223659  0.06252497     0.77900
C1378       C  0.76566665  0.99856631  0.03648538     0.78200
C1379       C  0.73603038  0.94678803  0.06394397     0.79400
C1380       C  0.87122653  0.98616126  0.06213984     0.78400
Zn1381     Zn  0.97729884  0.73360532  0.19274890     1.49700
Zn1382     Zn  0.97787169  0.76502392  0.17534359     1.49400
Zn1383     Zn  0.03437171  0.77184188  0.19380368     1.49100
Zn1384     Zn  0.04740121  0.73695955  0.17815096     1.49500
O1385       O  0.00921011  0.75204894  0.18518494    -1.82900
O1386       O  0.92064025  0.73724402  0.18948820    -0.73500
O1387       O  0.97879005  0.79412002  0.17745715    -0.73300
O1388       O  0.02071501  0.76612244  0.20798312    -0.72800
O1389       O  0.92214693  0.75813464  0.17711006    -0.73500
O1390       O  0.98189820  0.73998276  0.20694661    -0.73100
O1391       O  0.01415022  0.79981362  0.19055018    -0.73700
O1392       O  0.09923415  0.74721102  0.18105717    -0.73100
O1393       O  0.99431384  0.75938800  0.16148999    -0.73800
O1394       O  0.09362197  0.77075692  0.19223773    -0.73200
O1395       O  0.04188693  0.73802995  0.16373877    -0.73700
O1396       O  0.04690095  0.70864831  0.18193803    -0.73600
O1397       O  0.99446497  0.70474963  0.19094602    -0.73400
C1398       C  0.90332630  0.74779456  0.18319225     0.78400
C1399       C  0.99200681  0.80596366  0.18379038     0.78900
C1400       C  0.99925713  0.75305516  0.21198794     0.77900
C1401       C  0.11424999  0.76001149  0.18663756     0.78200
C1402       C  0.02035292  0.74797139  0.15811642     0.79400
C1403       C  0.02422080  0.69762464  0.18674552     0.78400
Zn1404     Zn  0.47578757  0.76433565  0.17642720     1.49700
Zn1405     Zn  0.54564351  0.73582070  0.17806595     1.49400
Zn1406     Zn  0.53508142  0.77046143  0.19386571     1.49100
Zn1407     Zn  0.47817655  0.73162485  0.19317813     1.49500
O1408       O  0.50864992  0.75063825  0.18558842    -1.82900
O1409       O  0.49347830  0.76214393  0.16257002    -0.73500
O1410       O  0.59828831  0.74496716  0.18096455    -0.73300
O1411       O  0.51169296  0.79848943  0.19207712    -0.72800
O1412       O  0.54016701  0.73995372  0.16398404    -0.73500
O1413       O  0.47272896  0.79290527  0.17968366    -0.73100
O1414       O  0.59367781  0.77028881  0.19120874    -0.73700
O1415       O  0.48587181  0.73754582  0.20728272    -0.73100
O1416       O  0.54320018  0.70681558  0.18037735    -0.73800
O1417       O  0.52640719  0.76313919  0.20787136    -0.73200
O1418       O  0.49531723  0.70280469  0.19083873    -0.73700
O1419       O  0.42074110  0.73513402  0.19038865    -0.73600
O1420       O  0.42137305  0.75544970  0.17777016    -0.73400
C1421       C  0.51967783  0.75137857  0.15882946     0.78400
C1422       C  0.61382107  0.75867851  0.18590968     0.78900
C1423       C  0.48672377  0.80459485  0.18596606     0.77900
C1424       C  0.50557727  0.75013848  0.21207780     0.78200
C1425       C  0.52206450  0.69564645  0.18552211     0.79400
C1426       C  0.40300264  0.74521526  0.18397209     0.78400
Zn1427     Zn  0.14717602  0.76475399  0.05278652     1.49700
Zn1428     Zn  0.07632094  0.73669153  0.05300549     1.49400
Zn1429     Zn  0.13760738  0.73435482  0.07047224     1.49100
Zn1430     Zn  0.08242559  0.77297295  0.06823615     1.49500
O1431       O  0.11064301  0.75206920  0.06125270    -1.82900
O1432       O  0.13693426  0.76031113  0.03870815    -0.73500
O1433       O  0.07669756  0.70814843  0.05694931    -0.73300
O1434       O  0.19616851  0.73589039  0.06867332    -0.72800
O1435       O  0.08908346  0.73854706  0.03859046    -0.73500
O1436       O  0.19905666  0.75428721  0.05540700    -0.73100
O1437       O  0.12039259  0.70576125  0.06860829    -0.73700
O1438       O  0.08010764  0.76544613  0.08230316    -0.73100
O1439       O  0.02231425  0.74555133  0.05543842    -0.73800
O1440       O  0.12165458  0.74064151  0.08430771    -0.73200
O1441       O  0.02545020  0.77293404  0.06440075    -0.73700
O1442       O  0.10932913  0.80038648  0.06696778    -0.73600
O1443       O  0.15190787  0.79369188  0.05545940    -0.73400
C1444       C  0.11397760  0.74902688  0.03410431     0.78400
C1445       C  0.09476232  0.69792881  0.06320582     0.78900
C1446       C  0.21550592  0.74404444  0.06189277     0.77900
C1447       C  0.09641629  0.75258812  0.08766469     0.78200
C1448       C  0.00590182  0.75960984  0.06000392     0.79400
C1449       C  0.13693194  0.80581823  0.06141591     0.78400
Zn1450     Zn  0.64519992  0.76829713  0.05451614     1.49700
Zn1451     Zn  0.57779315  0.73846284  0.05470545     1.49400
Zn1452     Zn  0.63799683  0.73781304  0.07221279     1.49100
Zn1453     Zn  0.57706935  0.77494776  0.06921771     1.49500
O1454       O  0.60963659  0.75481165  0.06289617    -1.82900
O1455       O  0.63690654  0.76281151  0.04051116    -0.73500
O1456       O  0.58031251  0.71052218  0.05870206    -0.73300
O1457       O  0.69703433  0.74124942  0.07055859    -0.72800
O1458       O  0.59006208  0.74053807  0.04066854    -0.73500
O1459       O  0.69866607  0.76129968  0.05785683    -0.73100
O1460       O  0.62113908  0.70840577  0.07097374    -0.73700
O1461       O  0.57950561  0.77013997  0.08337002    -0.73100
O1462       O  0.52287246  0.74511856  0.05628417    -0.73800
O1463       O  0.62231189  0.74595946  0.08577579    -0.73200
O1464       O  0.52029581  0.77127837  0.06595944    -0.73700
O1465       O  0.59520477  0.80345197  0.06660322    -0.73600
O1466       O  0.64250067  0.79725000  0.05630753    -0.73400
C1467       C  0.61399682  0.75124290  0.03608031     0.78400
C1468       C  0.59666502  0.70041051  0.06525395     0.78900
C1469       C  0.71596315  0.75132443  0.06431262     0.77900
C1470       C  0.59768407  0.75844068  0.08896094     0.78200
C1471       C  0.50359164  0.75792495  0.06094951     0.79400
C1472       C  0.62274511  0.80945625  0.06121835     0.78400
C1473       C  0.90312052  0.74046894  0.06113861    -0.26900
C1474       C  0.88250115  0.75761840  0.06349980     0.06700
C1475       C  0.90227591  0.77573661  0.06449704     0.26300
C1476       C  0.94243017  0.77651623  0.06325060    -0.11400
C1477       C  0.96319067  0.75932875  0.06076066    -0.25400
C1478       C  0.94294198  0.74124356  0.05971354     0.37100
C1479       C  0.84003773  0.75656924  0.06413336     0.06700
F1480       F  0.88274729  0.79258701  0.06672955    -0.19200
H1481       H  0.95724611  0.79054343  0.06419137     0.16500
F1482       F  0.96163781  0.72408479  0.05757667    -0.22900
H1483       H  0.88816386  0.72645590  0.06025360     0.18300
C1484       C  0.81763834  0.76492640  0.05678852     0.26300
C1485       C  0.77765877  0.76278524  0.05690452    -0.11400
C1486       C  0.75887176  0.75234563  0.06438662    -0.25400
C1487       C  0.78148672  0.74401848  0.07180800     0.37200
C1488       C  0.82184429  0.74599518  0.07160595    -0.27100
F1489       F  0.83459912  0.77469770  0.04933422    -0.19200
H1490       H  0.76141255  0.76938649  0.05104758     0.16500
F1491       F  0.76480242  0.73415753  0.07926277    -0.22900
H1492       H  0.83896919  0.73930681  0.07728213     0.18300
C1493       C  0.31834551  0.75044038  0.05333533    -0.26900
C1494       C  0.33925270  0.74501625  0.06154962     0.06700
C1495       C  0.31966667  0.73749959  0.06964942     0.26300
C1496       C  0.27929470  0.73625152  0.06962193    -0.11400
C1497       C  0.25811846  0.74261311  0.06153380    -0.25400
C1498       C  0.27829363  0.74926085  0.05327359     0.37100
C1499       C  0.38133375  0.74806400  0.06158822     0.06700
F1500       F  0.33957007  0.73151456  0.07757048    -0.19200
H1501       H  0.26461937  0.73096120  0.07602772     0.16500
F1502       F  0.25947784  0.75513966  0.04516119    -0.22900
H1503       H  0.33309331  0.75619261  0.04702698     0.18300
C1504       C  0.40433395  0.73923836  0.05444938     0.26300
C1505       C  0.44374704  0.74320296  0.05409363    -0.11400
C1506       C  0.46106290  0.75609294  0.06083042    -0.25400
C1507       C  0.43778677  0.76517945  0.06790641     0.37200
C1508       C  0.39821207  0.76109175  0.06827841    -0.27100
F1509       F  0.38872626  0.72652376  0.04791070    -0.19200
H1510       H  0.46083512  0.73589173  0.04859083     0.16500
F1511       F  0.45325345  0.77754925  0.07461034    -0.22900
H1512       H  0.38059534  0.76826423  0.07371973     0.18300
C1513       C  0.53134146  0.77091368  0.13336278    -0.26900
C1514       C  0.55185867  0.75532526  0.12897759     0.06700
C1515       C  0.55984777  0.73812841  0.13434752     0.26300
C1516       C  0.54819321  0.73678232  0.14396014    -0.11400
C1517       C  0.52805653  0.75243706  0.14839549    -0.25400
C1518       C  0.51926992  0.76948107  0.14296813     0.37100
C1519       C  0.56444134  0.75696554  0.11879385     0.06700
F1520       F  0.57847299  0.72249293  0.13027652    -0.19200
H1521       H  0.55516138  0.72345580  0.14796512     0.16500
F1522       F  0.50055446  0.78509618  0.14702927    -0.22900
H1523       H  0.52528786  0.78439799  0.12939487     0.18300
C1524       C  0.53836366  0.76312979  0.11163645     0.26300
C1525       C  0.55004267  0.76414938  0.10202255    -0.11400
C1526       C  0.58767531  0.75870459  0.09930834    -0.25400
C1527       C  0.61392548  0.75263785  0.10645269     0.37200
C1528       C  0.60243010  0.75198897  0.11613287    -0.27100
F1529       F  0.50108768  0.76735885  0.11386142    -0.19200
H1530       H  0.52907788  0.76854231  0.09663302     0.16500
F1531       F  0.65063993  0.74750800  0.10410786    -0.22900
H1532       H  0.62317831  0.74752641  0.12155633     0.18300
C1533       C  0.79817147  0.74395670  0.19094556    -0.26900
C1534       C  0.77987889  0.75554100  0.18388077     0.06700
C1535       C  0.80211090  0.76388658  0.17643390     0.26300
C1536       C  0.84191324  0.76069955  0.17610098    -0.11400
C1537       C  0.86052318  0.74918512  0.18319359    -0.25400
C1538       C  0.83805844  0.74073362  0.19062823     0.37100
C1539       C  0.73749242  0.75830158  0.18417299     0.06700
F1540       F  0.78550792  0.77558496  0.16962149    -0.19200
H1541       H  0.85826846  0.76762405  0.17034928     0.16500
F1542       F  0.85452396  0.72970967  0.19771627    -0.22900
H1543       H  0.78142314  0.73728264  0.19669968     0.18300
C1544       C  0.71478558  0.75299224  0.17618341     0.26300
C1545       C  0.67468801  0.75411284  0.17673610    -0.11400
C1546       C  0.65626270  0.76054334  0.18524037    -0.25400
C1547       C  0.67894613  0.76659577  0.19312338     0.37200
C1548       C  0.71930355  0.76532324  0.19259668    -0.27100
F1549       F  0.73123627  0.74569554  0.16801471    -0.19200
H1550       H  0.65788260  0.74938341  0.17054539     0.16500
F1551       F  0.66219187  0.77264035  0.20148262    -0.22900
H1552       H  0.73641183  0.76950303  0.19882293     0.18300
C1553       C  0.21918926  0.76152646  0.19438405    -0.26900
C1554       C  0.23768179  0.75736431  0.18555628     0.06700
C1555       C  0.21540564  0.75594393  0.17710836     0.26300
C1556       C  0.17549338  0.75813720  0.17753566    -0.11400
C1557       C  0.15672379  0.76167469  0.18636815    -0.25400
C1558       C  0.17893497  0.76377925  0.19480134     0.37100
C1559       C  0.27991256  0.75392850  0.18514703     0.06700
F1560       F  0.23194014  0.75132625  0.16850108    -0.19200
H1561       H  0.15895365  0.75632073  0.17095088     0.16500
F1562       F  0.16166619  0.76673208  0.20348363    -0.22900
H1563       H  0.23590465  0.76270588  0.20096940     0.18300
C1564       C  0.30280194  0.76415274  0.17842114     0.26300
C1565       C  0.34227425  0.76041170  0.17782084    -0.11400
C1566       C  0.36020988  0.74664642  0.18401389    -0.25400
C1567       C  0.33720759  0.73629330  0.19073451     0.37200
C1568       C  0.29741597  0.73994918  0.19126948    -0.27100
F1569       F  0.28723859  0.77828710  0.17262391    -0.19200
H1570       H  0.35900266  0.76889221  0.17265958     0.16500
F1571       F  0.35304287  0.72287383  0.19686906    -0.22900
H1572       H  0.28016276  0.73178043  0.19644380     0.18300
C1573       C  0.05690149  0.73078848  0.13358547    -0.26900
C1574       C  0.04705971  0.74694580  0.12766721     0.06700
C1575       C  0.02566580  0.76268275  0.13172218     0.26300
C1576       C  0.01561817  0.76248228  0.14151656    -0.11400
C1577       C  0.02702470  0.74676782  0.14752937    -0.25400
C1578       C  0.04724630  0.73069069  0.14340784     0.37100
C1579       C  0.05977630  0.74758121  0.11737491     0.06700
F1580       F  0.01605421  0.77877200  0.12634497    -0.19200
H1581       H  0.00023766  0.77508906  0.14448430     0.16500
F1582       F  0.05787131  0.71487239  0.14886124    -0.22900
H1583       H  0.07238759  0.71822655  0.13061090     0.18300
C1584       C  0.09809006  0.74301599  0.11471457     0.26300
C1585       C  0.10994779  0.74454107  0.10505402    -0.11400
C1586       C  0.08411686  0.75096252  0.09789616    -0.25400
C1587       C  0.04565761  0.75510744  0.10052494     0.37200
C1588       C  0.03369444  0.75329342  0.11012778    -0.27100
F1589       F  0.12447699  0.73772095  0.12148227    -0.19200
H1590       H  0.13956085  0.74109710  0.10319958     0.16500
F1591       F  0.01918980  0.76036597  0.09376298    -0.22900
H1592       H  0.00382130  0.75630354  0.11189525     0.18300
C1593       C  0.68927229  0.90054195  0.05369920    -0.26900
C1594       C  0.67765101  0.89056159  0.06212559     0.06700
C1595       C  0.68593531  0.89910271  0.07116601     0.26300
C1596       C  0.70532409  0.91728679  0.07171353    -0.11400
C1597       C  0.71756238  0.92705838  0.06328827    -0.25400
C1598       C  0.70912587  0.91856298  0.05424684     0.37100
C1599       C  0.66060466  0.87041219  0.06139474     0.06700
F1600       F  0.67681279  0.88949804  0.07947273    -0.19200
H1601       H  0.71133632  0.92360847  0.07875047     0.16500
F1602       F  0.71892448  0.92796269  0.04592810    -0.22900
H1603       H  0.68310094  0.89427479  0.04665682     0.18300
C1604       C  0.62726441  0.86484065  0.06655807     0.26300
C1605       C  0.61413801  0.84513276  0.06629366    -0.11400
C1606       C  0.63383858  0.83075327  0.06081173    -0.25400
C1607       C  0.66619150  0.83673971  0.05531127     0.37200
C1608       C  0.67925720  0.85625228  0.05565229    -0.27100
F1609       F  0.60737208  0.87841443  0.07182440    -0.19200
H1610       H  0.58901060  0.84107829  0.07050002     0.16500
F1611       F  0.68633386  0.82368417  0.04979077    -0.22900
H1612       H  0.70496097  0.86016003  0.05162630     0.18300
C1613       C  0.47803868  0.98664442  0.06628151    -0.26900
C1614       C  0.49657296  0.00266407  0.06170999     0.06700
C1615       C  0.47430806  0.01576096  0.05610169     0.26300
C1616       C  0.43447167  0.01304401  0.05525645    -0.11400
C1617       C  0.41562773  0.99734094  0.06003441    -0.25400
C1618       C  0.43803896  0.98400970  0.06551279     0.37100
C1619       C  0.53903893  0.00545214  0.06268580     0.06700
F1620       F  0.49075742  0.03166960  0.05171294    -0.19200
H1621       H  0.41822489  0.02366969  0.05102967     0.16500
F1622       F  0.42141952  0.96864509  0.07029374    -0.22900
H1623       H  0.49460199  0.97608831  0.07047191     0.18300
C1624       C  0.55747330  0.00390486  0.07172390     0.26300
C1625       C  0.59769883  0.00542462  0.07240977    -0.11400
C1626       C  0.62032300  0.00887907  0.06414878    -0.25400
C1627       C  0.60169841  0.01117676  0.05517003     0.37200
C1628       C  0.56162746  0.00929128  0.05446913    -0.27100
F1629       F  0.53663285  0.00101354  0.07990772    -0.19200
H1630       H  0.61121822  0.00369095  0.07941415     0.16500
F1631       F  0.62225667  0.01417105  0.04694875    -0.22900
H1632       H  0.54834761  0.01024434  0.04740308     0.18300
C1633       C  0.05272085  0.00509601  0.06956972    -0.26900
C1634       C  0.03597035  0.99295595  0.06241215     0.06700
C1635       C  0.05973470  0.98474454  0.05525991     0.26300
C1636       C  0.09923183  0.98843861  0.05529088    -0.11400
C1637       C  0.11651630  0.00025978  0.06250285    -0.25400
C1638       C  0.09268319  0.00874695  0.06964215     0.37100
C1639       C  0.99377382  0.98909890  0.06221608     0.06700
F1640       F  0.04496000  0.97256133  0.04837199    -0.19200
H1641       H  0.11642252  0.98154225  0.04968239     0.16500
F1642       F  0.10782388  0.02032013  0.07671848    -0.22900
H1643       H  0.03478953  0.01183415  0.07508048     0.18300
C1644       C  0.97392561  0.98279054  0.07053233     0.26300
C1645       C  0.93384613  0.98022129  0.07028109    -0.11400
C1646       C  0.91316855  0.98342374  0.06170241    -0.25400
C1647       C  0.93309074  0.98883820  0.05329958     0.37200
C1648       C  0.97300630  0.99176095  0.05357916    -0.27100
F1649       F  0.99316768  0.97933466  0.07890382    -0.19200
H1650       H  0.91867888  0.97644466  0.07687548     0.16500
F1651       F  0.91352434  0.99291318  0.04504130    -0.22900
H1652       H  0.98753811  0.99684315  0.04710962     0.18300
C1653       C  0.16639745  0.85758272  0.07020667    -0.26900
C1654       C  0.19093980  0.86373831  0.06269555     0.06700
C1655       C  0.19695954  0.85098747  0.05482318     0.26300
C1656       C  0.17868954  0.83251497  0.05444548    -0.11400
C1657       C  0.15368063  0.82623140  0.06187635    -0.25400
C1658       C  0.14774470  0.83903284  0.06980908     0.37100
C1659       C  0.20748190  0.88408250  0.06255049     0.06700
F1660       F  0.22061928  0.85644791  0.04746755    -0.19200
H1661       H  0.18423966  0.82308022  0.04825963     0.16500
F1662       F  0.12448665  0.83357188  0.07723300    -0.22900
H1663       H  0.16111795  0.86732792  0.07629196     0.18300
C1664       C  0.19505513  0.89754158  0.05549806     0.26300
C1665       C  0.21026458  0.91669352  0.05515013    -0.11400
C1666       C  0.23844775  0.92307511  0.06181299    -0.25400
C1667       C  0.25157339  0.90940866  0.06880136     0.37200
C1668       C  0.23593709  0.89010485  0.06918543    -0.27100
F1669       F  0.16740853  0.89225958  0.04903675    -0.19200
H1670       H  0.19934156  0.92666347  0.04966261     0.16500
F1671       F  0.27885840  0.91472322  0.07534208    -0.22900
H1672       H  0.24612758  0.87982125  0.07462544     0.18300
C1673       C  0.92216738  0.89366281  0.19432024    -0.26900
C1674       C  0.92947645  0.88570960  0.18512018     0.06700
C1675       C  0.91694762  0.89630381  0.17692024     0.26300
C1676       C  0.89790935  0.91450420  0.17796693    -0.11400
C1677       C  0.89164289  0.92266439  0.18716571    -0.25400
C1678       C  0.90380704  0.91200732  0.19535339     0.37100
C1679       C  0.94830663  0.86595934  0.18418813     0.06700
F1680       F  0.92440276  0.88945176  0.16788590    -0.19200
H1681       H  0.88968857  0.92268677  0.17154812     0.16500
F1682       F  0.89800363  0.91936015  0.20436979    -0.22900
H1683       H  0.93056065  0.88559311  0.20075425     0.18300
C1684       C  0.98128392  0.86090405  0.18962753     0.26300
C1685       C  0.99624375  0.84156249  0.18930155    -0.11400
C1686       C  0.97893962  0.82698705  0.18346206    -0.25400
C1687       C  0.94681747  0.83239400  0.17774363     0.37200
C1688       C  0.93174261  0.85155509  0.17817867    -0.27100
F1689       F  0.99901806  0.87464210  0.19526665    -0.19200
H1690       H  0.02105695  0.83793552  0.19371431     0.16500
F1691       F  0.92850893  0.81897624  0.17203115    -0.22900
H1692       H  0.90602783  0.85491175  0.17404331     0.18300
C1693       C  0.83939487  0.01648868  0.13573831    -0.26900
C1694       C  0.81806805  0.00090719  0.13155763     0.06700
C1695       C  0.80737765  0.98476402  0.13739775     0.26300
C1696       C  0.81672643  0.98454280  0.14721386    -0.11400
C1697       C  0.83743724  0.00024565  0.15149304    -0.25400
C1698       C  0.84904056  0.01622678  0.14558921     0.37100
C1699       C  0.80807910  0.00123191  0.12108249     0.06700
F1700       F  0.78880969  0.96885848  0.13356701    -0.19200
H1701       H  0.80777326  0.97186183  0.15146748     0.16500
F1702       F  0.86931069  0.03169388  0.14930306    -0.22900
H1703       H  0.84825524  0.02903507  0.13137406     0.18300
C1704       C  0.77033296  0.99710337  0.11783619     0.26300
C1705       C  0.76188998  0.99665098  0.10792729    -0.11400
C1706       C  0.79067028  0.00066083  0.10104738    -0.25400
C1707       C  0.82831800  0.00511926  0.10433420     0.37200
C1708       C  0.83675204  0.00537338  0.11421621    -0.27100
F1709       F  0.74133085  0.99396056  0.12424776    -0.19200
H1710       H  0.73267460  0.99343305  0.10564594     0.16500
F1711       F  0.85744095  0.00878684  0.09801446    -0.22900
H1712       H  0.86602369  0.00846274  0.11650542     0.18300
C1713       C  0.64843036  0.97627572  0.18541799    -0.26900
C1714       C  0.62977179  0.99455635  0.18699963     0.06700
C1715       C  0.65202993  0.01111638  0.18968161     0.26300
C1716       C  0.69178201  0.00937325  0.19082097    -0.11400
C1717       C  0.71064345  0.99126143  0.18909697    -0.25400
C1718       C  0.68861350  0.97464611  0.18634854     0.37100
C1719       C  0.58727019  0.99646767  0.18595024     0.06700
F1720       F  0.63561420  0.02925058  0.19086680    -0.19200
H1721       H  0.70804847  0.02253267  0.19274257     0.16500
F1722       F  0.70572998  0.95686088  0.18466346    -0.22900
H1723       H  0.63187413  0.96321689  0.18350417     0.18300
C1724       C  0.56770973  0.98853518  0.17792040     0.26300
C1725       C  0.52772836  0.99083752  0.17703846    -0.11400
C1726       C  0.50649178  0.00123790  0.18407908    -0.25400
C1727       C  0.52629139  0.00940776  0.19203391     0.37200
C1728       C  0.56603187  0.00679849  0.19298169    -0.27100
F1729       F  0.58723449  0.97887065  0.17083573    -0.19200
H1730       H  0.51337114  0.98435722  0.17084315     0.16500
F1731       F  0.50731754  0.01949262  0.19907550    -0.22900
H1732       H  0.58021686  0.01273282  0.19932917     0.18300
C1733       C  0.06304952  0.97891022  0.18587853    -0.26900
C1734       C  0.08620752  0.99564100  0.18439810     0.06700
C1735       C  0.06861957  0.01413180  0.18259247     0.26300
C1736       C  0.02830497  0.01586810  0.18265503    -0.11400
C1737       C  0.00526312  0.99921045  0.18455260    -0.25400
C1738       C  0.02299711  0.98060378  0.18592446     0.37100
C1739       C  0.12863896  0.99353601  0.18462277     0.06700
F1740       F  0.09043561  0.03060234  0.18114652    -0.19200
H1741       H  0.01519264  0.03029073  0.18158685     0.16500
F1742       F  0.00151147  0.96397016  0.18728353    -0.22900
H1743       H  0.07607653  0.96448218  0.18700592     0.18300
C1744       C  0.14756794  0.98534595  0.19269428     0.26300
C1745       C  0.18792204  0.98383209  0.19284125    -0.11400
C1746       C  0.20979910  0.99047060  0.18494315    -0.25400
C1747       C  0.19045570  0.99789832  0.17672645     0.37200
C1748       C  0.15036923  0.99946658  0.17661998    -0.27100
F1749       F  0.12711949  0.97954687  0.20056829    -0.19200
H1750       H  0.20206905  0.97818894  0.19924535     0.16500
F1751       F  0.21028194  0.00376698  0.16876002    -0.22900
H1752       H  0.13620453  0.00533113  0.17026104     0.18300
C1753       C  0.39412968  0.89039648  0.19320103    -0.26900
C1754       C  0.42109593  0.88397413  0.18627314     0.06700
C1755       C  0.43126380  0.89693921  0.17874658     0.26300
C1756       C  0.41516293  0.91587335  0.17820697    -0.11400
C1757       C  0.38854706  0.92259344  0.18516921    -0.25400
C1758       C  0.37785253  0.90949790  0.19266465     0.37100
C1759       C  0.43769335  0.86359773  0.18653940     0.06700
F1760       F  0.45772024  0.89148262  0.17201028    -0.19200
H1761       H  0.42435776  0.92545696  0.17236506     0.16500
F1762       F  0.35215981  0.91515089  0.19953588    -0.22900
H1763       H  0.38543132  0.88054292  0.19898515     0.18300
C1764       C  0.45669358  0.85605969  0.19475513     0.26300
C1765       C  0.47384777  0.83712632  0.19451345    -0.11400
C1766       C  0.47197986  0.82535913  0.18611660    -0.25400
C1767       C  0.45280698  0.83306139  0.17794266     0.37200
C1768       C  0.43590435  0.85182108  0.17820418    -0.27100
F1769       F  0.45930868  0.86712186  0.20292567    -0.19200
H1770       H  0.48796901  0.83153672  0.20094094     0.16500
F1771       F  0.45041279  0.82252467  0.16959928    -0.22900
H1772       H  0.42122557  0.85721255  0.17181129     0.18300
C1773       C  0.31521997  0.01834656  0.13355560    -0.26900
C1774       C  0.32311978  0.00190939  0.12767480     0.06700
C1775       C  0.34171707  0.98528365  0.13170863     0.26300
C1776       C  0.35147199  0.98505560  0.14150474    -0.11400
C1777       C  0.34245184  0.00126135  0.14745744    -0.25400
C1778       C  0.32458371  0.01806370  0.14335175     0.37100
C1779       C  0.31197218  0.00215911  0.11735847     0.06700
F1780       F  0.34905857  0.96894558  0.12626713    -0.19200
H1781       H  0.36482887  0.97189093  0.14450834     0.16500
F1782       F  0.31615528  0.03427573  0.14878913    -0.22900
H1783       H  0.30170336  0.03146809  0.13054919     0.18300
C1784       C  0.27438022  0.00748617  0.11447139     0.26300
C1785       C  0.26406788  0.00690736  0.10470626    -0.11400
C1786       C  0.29090906  0.00082430  0.09771475    -0.25400
C1787       C  0.32881521  0.99612717  0.10059497     0.37200
C1788       C  0.33912449  0.99684161  0.11031384    -0.27100
F1789       F  0.24727146  0.01258838  0.12110426    -0.19200
H1790       H  0.23486220  0.01074105  0.10263811     0.16500
F1791       F  0.35624801  0.99123211  0.09400142    -0.22900
H1792       H  0.36849855  0.99326960  0.11234820     0.18300
C1793       C  0.78632657  0.10786041  0.05781138    -0.26900
C1794       C  0.82088045  0.11393027  0.06225773     0.06700
C1795       C  0.84448314  0.09962129  0.06664969     0.26300
C1796       C  0.83348407  0.07974408  0.06670472    -0.11400
C1797       C  0.79887016  0.07356263  0.06231452    -0.25400
C1798       C  0.77542038  0.08785324  0.05777486     0.37100
C1799       C  0.83197426  0.13516608  0.06246251     0.06700
F1800       F  0.87867653  0.10477492  0.07073286    -0.19200
H1801       H  0.85247640  0.06914370  0.07015411     0.16500
F1802       F  0.74188332  0.08262604  0.05338552    -0.22900
H1803       H  0.76746261  0.11867244  0.05447389     0.18300
C1804       C  0.83056435  0.14678143  0.05404554     0.26300
C1805       C  0.83993048  0.16691449  0.05443422    -0.11400
C1806       C  0.85126009  0.17582241  0.06317844    -0.25400
C1807       C  0.85374265  0.16409067  0.07154125     0.37200
C1808       C  0.84387388  0.14399332  0.07117697    -0.27100
F1809       F  0.82039181  0.13866944  0.04543297    -0.19200
H1810       H  0.83793508  0.17562887  0.04788233     0.16500
F1811       F  0.86366351  0.17221341  0.08016538    -0.22900
H1812       H  0.84460555  0.13541365  0.07778353     0.18300
C1813       C  0.34320320  0.14371709  0.07125869    -0.26900
C1814       C  0.31181812  0.13793343  0.06546838     0.06700
C1815       C  0.29175816  0.15240317  0.06021743     0.26300
C1816       C  0.30315550  0.17224093  0.06065072    -0.11400
C1817       C  0.33486321  0.17821237  0.06633268    -0.25400
C1818       C  0.35483270  0.16367800  0.07167782     0.37100
C1819       C  0.30051572  0.11678317  0.06467801     0.06700
F1820       F  0.26071009  0.14736501  0.05475651    -0.19200
H1821       H  0.28674233  0.18299479  0.05654115     0.16500
F1822       F  0.38587414  0.16861972  0.07715341    -0.22900
H1823       H  0.35910580  0.13268574  0.07532128     0.18300
C1824       C  0.30235377  0.10697719  0.05572958     0.26300
C1825       C  0.29220647  0.08693945  0.05500799    -0.11400
C1826       C  0.27938095  0.07634660  0.06315171    -0.25400
C1827       C  0.27662314  0.08635126  0.07207194     0.37200
C1828       C  0.28748188  0.10634976  0.07281972    -0.27100
F1829       F  0.31505708  0.11665705  0.04773828    -0.19200
H1830       H  0.29479967  0.07961570  0.04807079     0.16500
F1831       F  0.26512509  0.07661663  0.08015478    -0.22900
H1832       H  0.28574094  0.11372483  0.07976053     0.18300
C1833       C  0.56926126  0.24625847  0.05838896    -0.26900
C1834       C  0.59127098  0.24369935  0.06675786     0.06700
C1835       C  0.57257132  0.23927005  0.07552582     0.26300
C1836       C  0.53210086  0.23821538  0.07591618    -0.11400
C1837       C  0.51002481  0.24177139  0.06758256    -0.25400
C1838       C  0.52921367  0.24528389  0.05874911     0.37100
C1839       C  0.63353899  0.24635769  0.06614576     0.06700
F1840       F  0.59341767  0.23612382  0.08367912    -0.19200
H1841       H  0.51805764  0.23545560  0.08277574     0.16500
F1842       F  0.50925649  0.24824961  0.05042966    -0.22900
H1843       H  0.58315931  0.24962182  0.05156807     0.18300
C1844       C  0.65508064  0.23536059  0.05943435     0.26300
C1845       C  0.69445715  0.23891182  0.05831333    -0.11400
C1846       C  0.71333454  0.25355664  0.06382611    -0.25400
C1847       C  0.69153679  0.26478627  0.07047336     0.37200
C1848       C  0.65198794  0.26110870  0.07162580    -0.27100
F1849       F  0.63806207  0.22098004  0.05403388    -0.19200
H1850       H  0.71027765  0.22993194  0.05316652     0.16500
F1851       F  0.70836234  0.27905020  0.07597327    -0.22900
H1852       H  0.63556946  0.26999703  0.07669426     0.18300
C1853       C  0.07337757  0.24257762  0.07450177    -0.26900
C1854       C  0.09215317  0.25492025  0.06780749     0.06700
C1855       C  0.07037332  0.26515448  0.06092131     0.26300
C1856       C  0.03050794  0.26289115  0.06060909    -0.11400
C1857       C  0.01118571  0.25030682  0.06715084    -0.25400
C1858       C  0.03308103  0.24022104  0.07418940     0.37100
C1859       C  0.13459577  0.25629122  0.06743264     0.06700
F1860       F  0.08782451  0.27737932  0.05445980    -0.19200
H1861       H  0.01479538  0.27112457  0.05516901     0.16500
F1862       F  0.01582411  0.22796947  0.08065743    -0.22900
H1863       H  0.09001743  0.23447678  0.07981691     0.18300
C1864       C  0.15563397  0.26625040  0.07461816     0.26300
C1865       C  0.19566021  0.26859886  0.07366039    -0.11400
C1866       C  0.21518137  0.26083154  0.06557775    -0.25400
C1867       C  0.19373434  0.25088294  0.05840041     0.37200
C1868       C  0.15388492  0.24877275  0.05932875    -0.27100
F1869       F  0.13740905  0.27392681  0.08245433    -0.19200
H1870       H  0.21149046  0.27604394  0.07935214     0.16500
F1871       F  0.21116331  0.24317139  0.05045404    -0.22900
H1872       H  0.13789481  0.24124302  0.05368654     0.18300
C1873       C  0.84082909  0.10672321  0.18409321    -0.26900
C1874       C  0.82357196  0.11462281  0.19244380     0.06700
C1875       C  0.81653876  0.10202561  0.20033548     0.26300
C1876       C  0.82548030  0.08180587  0.19971106    -0.11400
C1877       C  0.84190527  0.07379537  0.19124992    -0.25400
C1878       C  0.85013078  0.08658672  0.18349565     0.37100
C1879       C  0.81181731  0.13580348  0.19260262     0.06700
F1880       F  0.80119440  0.10926070  0.20864872    -0.19200
H1881       H  0.81920674  0.07235981  0.20583865     0.16500
F1882       F  0.86542997  0.07953884  0.17514568    -0.22900
H1883       H  0.84606473  0.11607706  0.17787421     0.18300
C1884       C  0.83754714  0.15057480  0.18948498     0.26300
C1885       C  0.82510346  0.17013139  0.18849991    -0.11400
C1886       C  0.78690359  0.17555086  0.19073034    -0.25400
C1887       C  0.76156994  0.16099261  0.19431307     0.37200
C1888       C  0.77394224  0.14124720  0.19517248    -0.27100
F1889       F  0.87482280  0.14609561  0.18737416    -0.19200
H1890       H  0.84560959  0.18111141  0.18598487     0.16500
F1891       F  0.72457539  0.16563122  0.19661493    -0.22900
H1892       H  0.75353536  0.13008670  0.19753214     0.18300
C1893       C  0.79914218  0.23057790  0.13517088    -0.26900
C1894       C  0.79354365  0.24789141  0.12973650     0.06700
C1895       C  0.77411597  0.26406454  0.13398638     0.26300
C1896       C  0.76176364  0.26305001  0.14359066    -0.11400
C1897       C  0.76902771  0.24605469  0.14915103    -0.25400
C1898       C  0.78723555  0.22964572  0.14478817     0.37100
C1899       C  0.80767651  0.24889649  0.11964186     0.06700
F1900       F  0.76873826  0.28119891  0.12901378    -0.19200
H1901       H  0.74826548  0.27595970  0.14682219     0.16500
F1902       F  0.79397445  0.21275124  0.14985127    -0.22900
H1903       H  0.81303386  0.21774790  0.13197275     0.18300
C1904       C  0.84544188  0.24292845  0.11718025     0.26300
C1905       C  0.85797881  0.24379209  0.10757088    -0.11400
C1906       C  0.83332423  0.25093113  0.10032672    -0.25400
C1907       C  0.79556300  0.25679131  0.10280993     0.37200
C1908       C  0.78295072  0.25566564  0.11234798    -0.27100
F1909       F  0.87049133  0.23671143  0.12408172    -0.19200
H1910       H  0.88710425  0.23920379  0.10581718     0.16500
F1911       F  0.77025205  0.26301677  0.09596450    -0.22900
H1912       H  0.75351532  0.25984489  0.11401640     0.18300
C1913       C  0.31123771  0.14671479  0.19545245    -0.26900
C1914       C  0.31287309  0.13756274  0.18635525     0.06700
C1915       C  0.30133356  0.14837182  0.17815284     0.26300
C1916       C  0.28799805  0.16787675  0.17909194    -0.11400
C1917       C  0.28639561  0.17706272  0.18819411    -0.25400
C1918       C  0.29828701  0.16627707  0.19638806     0.37100
C1919       C  0.32357482  0.11631013  0.18558042     0.06700
F1920       F  0.30363428  0.14017440  0.16920945    -0.19200
H1921       H  0.27987402  0.17599190  0.17265237     0.16500
F1922       F  0.29673896  0.17449496  0.20533610    -0.22900
H1923       H  0.31925957  0.13854130  0.20188236     0.18300
C1924       C  0.35740078  0.10876064  0.18985027     0.26300
C1925       C  0.36523469  0.08834066  0.18957935    -0.11400
C1926       C  0.33948224  0.07512369  0.18505524    -0.25400
C1927       C  0.30599541  0.08290719  0.18063343     0.37200
C1928       C  0.29831511  0.10320002  0.18092517    -0.27100
F1929       F  0.38294383  0.12112832  0.19422103    -0.19200
H1930       H  0.39130577  0.08287791  0.19296614     0.16500
F1931       F  0.27987015  0.07095161  0.17620223    -0.22900
H1932       H  0.27185427  0.10863933  0.17771518     0.18300
C1933       C  0.54568867  0.24902955  0.18242553    -0.26900
C1934       C  0.53064427  0.25207664  0.19173779     0.06700
C1935       C  0.55570890  0.25097385  0.19971895     0.26300
C1936       C  0.59508913  0.24731803  0.19833177    -0.11400
C1937       C  0.61028885  0.24497058  0.18898048    -0.25400
C1938       C  0.58510275  0.24569519  0.18102983     0.37100
C1939       C  0.48872969  0.25593023  0.19299458     0.06700
F1940       F  0.54248333  0.25424956  0.20881453    -0.19200
H1941       H  0.61400780  0.24719328  0.20456196     0.16500
F1942       F  0.59855607  0.24319977  0.17190083    -0.22900
H1943       H  0.52682133  0.24926866  0.17618981     0.18300
C1944       C  0.46942693  0.26983556  0.18714823     0.26300
C1945       C  0.42924159  0.27166527  0.18758677    -0.11400
C1946       C  0.40747302  0.25972805  0.19387785    -0.25400
C1947       C  0.42718478  0.24672334  0.20017996     0.37200
C1948       C  0.46729826  0.24482889  0.19967733    -0.27100
F1949       F  0.48938204  0.28145391  0.18088773    -0.19200
H1950       H  0.41509535  0.28193198  0.18272983     0.16500
F1951       F  0.40778042  0.23523010  0.20660839    -0.22900
H1952       H  0.48144000  0.23402521  0.20425463     0.18300
C1953       C  0.04907019  0.25555459  0.19338253    -0.26900
C1954       C  0.03075345  0.25197920  0.18454645     0.06700
C1955       C  0.05290525  0.24518199  0.17666420     0.26300
C1956       C  0.09288040  0.24239712  0.17764491    -0.11400
C1957       C  0.11132959  0.24637363  0.18647964    -0.25400
C1958       C  0.08871734  0.25273209  0.19438939     0.37100
C1959       C  0.98828905  0.25448921  0.18390565     0.06700
F1960       F  0.03611871  0.24183818  0.16795472    -0.19200
H1961       H  0.10954870  0.23778395  0.17141459     0.16500
F1962       F  0.10485530  0.25634298  0.20315373    -0.22900
H1963       H  0.03245639  0.26038541  0.19958606     0.18300
C1964       C  0.96497950  0.23849103  0.18112763     0.26300
C1965       C  0.92490945  0.24017575  0.18145765    -0.11400
C1966       C  0.90681007  0.25779365  0.18463211    -0.25400
C1967       C  0.93017884  0.27397267  0.18728384     0.37200
C1968       C  0.97058626  0.27226674  0.18693599    -0.27100
F1969       F  0.98089793  0.22081944  0.17859589    -0.19200
H1970       H  0.90802176  0.22728281  0.17945477     0.16500
F1971       F  0.91417014  0.29132739  0.19022404    -0.22900
H1972       H  0.98817175  0.28476128  0.18914927     0.18300
C1973       C  0.29112933  0.26357166  0.11593784    -0.26900
C1974       C  0.31515328  0.25497235  0.12288928     0.06700
C1975       C  0.35042416  0.24653221  0.12003783     0.26300
C1976       C  0.36142287  0.24665202  0.11029356    -0.11400
C1977       C  0.33753162  0.25539198  0.10328698    -0.25400
C1978       C  0.30204067  0.26378649  0.10622039     0.37100
C1979       C  0.30337434  0.25500017  0.13312778     0.06700
F1980       F  0.37431612  0.23837537  0.12670781    -0.19200
H1981       H  0.38876386  0.24009690  0.10823878     0.16500
F1982       F  0.27725118  0.27168872  0.09967170    -0.22900
H1983       H  0.26373500  0.27001677  0.11804852     0.18300
C1984       C  0.30923507  0.27188173  0.13886572     0.26300
C1985       C  0.29933916  0.27160672  0.14865741    -0.11400
C1986       C  0.28287734  0.25457432  0.15286782    -0.25400
C1987       C  0.27601472  0.23783119  0.14698290     0.37200
C1988       C  0.28644833  0.23807310  0.13720791    -0.27100
F1989       F  0.32511796  0.28851356  0.13501849    -0.19200
H1990       H  0.30470933  0.28474746  0.15295869     0.16500
F1991       F  0.26038361  0.22101565  0.15070270    -0.22900
H1992       H  0.28159053  0.22499485  0.13282005     0.18300
C1993       C  0.53341155  0.60867982  0.07573628    -0.26900
C1994       C  0.54607043  0.61851902  0.06736408     0.06700
C1995       C  0.54725734  0.60807494  0.05858417     0.26300
C1996       C  0.53640864  0.58819421  0.05820006    -0.11400
C1997       C  0.52404510  0.57815347  0.06653493    -0.25400
C1998       C  0.52215647  0.58864919  0.07533575     0.37100
C1999       C  0.55761261  0.63970319  0.06758590     0.06700
F2000       F  0.56000748  0.61698033  0.05038600    -0.19200
H2001       H  0.53823871  0.58052661  0.05133240     0.16500
F2002       F  0.51094548  0.57941952  0.08358348    -0.22900
H2003       H  0.53219395  0.61653102  0.08256130     0.18300
C2004       C  0.53988866  0.65315191  0.06127429     0.26300
C2005       C  0.55330285  0.67255747  0.06057570    -0.11400
C2006       C  0.58450785  0.67929852  0.06623452    -0.25400
C2007       C  0.60141624  0.66601858  0.07286173     0.37200
C2008       C  0.58801404  0.64634380  0.07350189    -0.27100
F2009       F  0.50946463  0.64748007  0.05573327    -0.19200
H2010       H  0.53879678  0.68236377  0.05555999     0.16500
F2011       F  0.63102345  0.67187951  0.07860930    -0.22900
H2012       H  0.60200202  0.63614678  0.07842437     0.18300
C2013       C  0.45223017  0.39717553  0.05655019    -0.26900
C2014       C  0.45190468  0.38724355  0.06546739     0.06700
C2015       C  0.46898788  0.39648649  0.07353146     0.26300
C2016       C  0.48491385  0.41555746  0.07268456    -0.11400
C2017       C  0.48381169  0.42571324  0.06382299    -0.25400
C2018       C  0.46794012  0.41615548  0.05571239     0.37100
C2019       C  0.43502941  0.36699086  0.06601306     0.06700
F2020       F  0.47061306  0.38705424  0.08217931    -0.19200
H2021       H  0.49687224  0.42267194  0.07903950     0.16500
F2022       F  0.46738492  0.42522907  0.04695949    -0.22900
H2023       H  0.43963572  0.39030565  0.05020801     0.18300
C2024       C  0.40722813  0.36171089  0.07299499     0.26300
C2025       C  0.39090299  0.34259929  0.07298412    -0.11400
C2026       C  0.40199171  0.32850025  0.06601477    -0.25400
C2027       C  0.42945680  0.33407595  0.05897111     0.37200
C2028       C  0.44570257  0.35296917  0.05903907    -0.27100
F2029       F  0.39513825  0.37513059  0.07965442    -0.19200
H2030       H  0.36990027  0.33878420  0.07847565     0.16500
F2031       F  0.44075067  0.32134171  0.05190824    -0.22900
H2032       H  0.46691962  0.35667336  0.05357521     0.18300
C2033       C  0.03935237  0.64942759  0.06209025    -0.26900
C2034       C  0.06517754  0.63615705  0.06643217     0.06700
C2035       C  0.10067897  0.64336104  0.06993355     0.26300
C2036       C  0.11017431  0.66347106  0.06894080    -0.11400
C2037       C  0.08466764  0.67667125  0.06435583    -0.25400
C2038       C  0.04879290  0.66943790  0.06106245     0.37100
C2039       C  0.05567065  0.61471359  0.06665727     0.06700
F2040       F  0.12602629  0.63098328  0.07435385    -0.19200
H2041       H  0.13774316  0.66866770  0.07165346     0.16500
F2042       F  0.02246331  0.68170341  0.05693634    -0.22900
H2043       H  0.01197978  0.64417794  0.05927438     0.18300
C2044       C  0.01972693  0.60796640  0.07009267     0.26300
C2045       C  0.00987117  0.58786388  0.06940771    -0.11400
C2046       C  0.03542563  0.57420016  0.06518465    -0.25400
C2047       C  0.07178070  0.58094618  0.06196825     0.37200
C2048       C  0.08164923  0.60097186  0.06271934    -0.27100
F2049       F  0.99416437  0.62082110  0.07410395    -0.19200
H2050       H  0.98190624  0.58304472  0.07202748     0.16500
F2051       F  0.09804525  0.56820412  0.05815163    -0.22900
H2052       H  0.10936349  0.60586190  0.05995895     0.18300
C2053       C  0.79681984  0.51131274  0.06944869    -0.26900
C2054       C  0.77919932  0.50503060  0.06083406     0.06700
C2055       C  0.80206771  0.50093825  0.05273026     0.26300
C2056       C  0.84208923  0.50238602  0.05335830    -0.11400
C2057       C  0.86011724  0.50802476  0.06206086    -0.25400
C2058       C  0.83703515  0.51293759  0.07006813     0.37100
C2059       C  0.73702573  0.50237982  0.06036825     0.06700
F2060       F  0.78579386  0.49468170  0.04433879    -0.19200
H2061       H  0.85908388  0.49859550  0.04705172     0.16500
F2062       F  0.85323510  0.51836698  0.07859269    -0.22900
H2063       H  0.77936887  0.51469649  0.07572956     0.18300
C2064       C  0.71837966  0.48888455  0.06651554     0.26300
C2065       C  0.67826393  0.48690346  0.06623264    -0.11400
C2066       C  0.65608087  0.49845575  0.05985852    -0.25400
C2067       C  0.67516400  0.51147057  0.05344684     0.37200
C2068       C  0.71528036  0.51331593  0.05371456    -0.27100
F2069       F  0.73903184  0.47761590  0.07278018    -0.19200
H2070       H  0.66451673  0.47673310  0.07121658     0.16500
F2071       F  0.65520313  0.52271811  0.04702983    -0.22900
H2072       H  0.72938608  0.52364283  0.04886381     0.18300
C2073       C  0.30061738  0.49901119  0.05585331    -0.26900
C2074       C  0.27863641  0.50220719  0.06419187     0.06700
C2075       C  0.29736459  0.50767693  0.07281382     0.26300
C2076       C  0.33771086  0.50952905  0.07306885    -0.11400
C2077       C  0.35980710  0.50573838  0.06475467    -0.25400
C2078       C  0.34063294  0.50074591  0.05608579     0.37100
C2079       C  0.23626935  0.49966328  0.06369027     0.06700
F2080       F  0.27664493  0.51132893  0.08094304    -0.19200
H2081       H  0.35168995  0.51337581  0.07980754     0.16500
F2082       F  0.36048216  0.49739729  0.04778013    -0.22900
H2083       H  0.28673011  0.49479798  0.04914811     0.18300
C2084       C  0.21484262  0.50988845  0.05668343     0.26300
C2085       C  0.17517956  0.50686138  0.05589893    -0.11400
C2086       C  0.15576161  0.49362941  0.06210051    -0.25400
C2087       C  0.17742911  0.48313038  0.06903739     0.37200
C2088       C  0.21733963  0.48620067  0.06981348    -0.27100
F2089       F  0.23215597  0.52321679  0.05073639    -0.19200
H2090       H  0.15954680  0.51532061  0.05052613     0.16500
F2091       F  0.16014767  0.47023121  0.07519572    -0.22900
H2092       H  0.23357434  0.47794943  0.07515095     0.18300
C2093       C  0.93396541  0.39771207  0.05665209    -0.26900
C2094       C  0.93854109  0.38646468  0.06506765     0.06700
C2095       C  0.96042944  0.39420028  0.07274421     0.26300
C2096       C  0.97742467  0.41305249  0.07194420    -0.11400
C2097       C  0.97246934  0.42444871  0.06351543    -0.25400
C2098       C  0.95049987  0.41648100  0.05585987     0.37100
C2099       C  0.92339085  0.36598070  0.06520724     0.06700
F2100       F  0.96603059  0.38337042  0.08088590    -0.19200
H2101       H  0.99379774  0.41888686  0.07797722     0.16500
F2102       F  0.94510540  0.42673529  0.04753098    -0.22900
H2103       H  0.91760347  0.39182513  0.05062254     0.18300
C2104       C  0.89381278  0.36000696  0.07152714     0.26300
C2105       C  0.87881498  0.34065775  0.07097714    -0.11400
C2106       C  0.89324549  0.32706040  0.06413866    -0.25400
C2107       C  0.92292866  0.33334511  0.05783081     0.37200
C2108       C  0.93754928  0.35253098  0.05838720    -0.27100
F2109       F  0.87896709  0.37296217  0.07805428    -0.19200
H2110       H  0.85622080  0.33627638  0.07594878     0.16500
F2111       F  0.93827031  0.32101007  0.05108723    -0.22900
H2112       H  0.96020034  0.35696651  0.05343321     0.18300
C2113       C  0.55570556  0.64499940  0.17703041    -0.26900
C2114       C  0.55040463  0.63343009  0.18533944     0.06700
C2115       C  0.53477839  0.64238428  0.19367779     0.26300
C2116       C  0.52421207  0.66244378  0.19361041    -0.11400
C2117       C  0.52983119  0.67404117  0.18531688    -0.25400
C2118       C  0.54565978  0.66508881  0.17699846     0.37100
C2119       C  0.56069842  0.61202997  0.18521579     0.06700
F2120       F  0.53095647  0.63191275  0.20199609    -0.19200
H2121       H  0.51285392  0.66907823  0.20014902     0.16500
F2122       F  0.55104293  0.67570231  0.16877405    -0.22900
H2123       H  0.56736694  0.63840768  0.17051370     0.18300
C2124       C  0.53407138  0.59776178  0.18840087     0.26300
C2125       C  0.54413694  0.57774763  0.18859840    -0.11400
C2126       C  0.58071478  0.57131662  0.18546196    -0.25400
C2127       C  0.60694038  0.58548147  0.18188638     0.37200
C2128       C  0.59697139  0.60568096  0.18181114    -0.27100
F2129       F  0.49786984  0.60310167  0.19111575    -0.19200
H2130       H  0.52284135  0.56718421  0.19113133     0.16500
F2131       F  0.64236714  0.57993522  0.17868723    -0.22900
H2132       H  0.61781778  0.61642644  0.17923019     0.18300
C2133       C  0.66324973  0.39268119  0.19481720    -0.26900
C2134       C  0.65585054  0.38071781  0.18675120     0.06700
C2135       C  0.62909612  0.38738022  0.17979966     0.26300
C2136       C  0.61230683  0.40628940  0.18062995    -0.11400
C2137       C  0.62152715  0.41876715  0.18845505    -0.25400
C2138       C  0.64622401  0.41135962  0.19573122     0.37100
C2139       C  0.67599919  0.36130429  0.18580862     0.06700
F2140       F  0.62063198  0.37604156  0.17197289    -0.19200
H2141       H  0.59344421  0.41147907  0.17492894     0.16500
F2142       F  0.65505321  0.42236073  0.20364914    -0.22900
H2143       H  0.68268189  0.38758971  0.20042009     0.18300
C2144       C  0.71650006  0.35988184  0.18671038     0.26300
C2145       C  0.73489441  0.34129091  0.18650430    -0.11400
C2146       C  0.71325710  0.32386237  0.18523985    -0.25400
C2147       C  0.67277966  0.32541436  0.18423942     0.37200
C2148       C  0.65452377  0.34389677  0.18452494    -0.27100
F2149       F  0.73829171  0.37651648  0.18766795    -0.19200
H2150       H  0.76596517  0.34053223  0.18722136     0.16500
F2151       F  0.65046629  0.30893227  0.18337453    -0.22900
H2152       H  0.62337117  0.34455849  0.18400190     0.18300
C2153       C  0.59361896  0.50953788  0.13407820    -0.26900
C2154       C  0.56676410  0.49610456  0.13020049     0.06700
C2155       C  0.55040797  0.48163481  0.13622813     0.26300
C2156       C  0.56018611  0.48086514  0.14598213    -0.11400
C2157       C  0.58645150  0.49450785  0.14999652    -0.25400
C2158       C  0.60356836  0.50876968  0.14388295     0.37100
C2159       C  0.55566245  0.49705538  0.11989163     0.06700
F2160       F  0.52383760  0.46864742  0.13275299    -0.19200
H2161       H  0.54633154  0.46974135  0.15044502     0.16500
F2162       F  0.62943209  0.52212750  0.14735122    -0.22900
H2163       H  0.60690250  0.52064316  0.12949126     0.18300
C2164       C  0.54081708  0.51459560  0.11583786     0.26300
C2165       C  0.52887202  0.51491671  0.10617846    -0.11400
C2166       C  0.53214826  0.49786374  0.10039063    -0.25400
C2167       C  0.54705344  0.48033528  0.10448066     0.37200
C2168       C  0.55855853  0.47998710  0.11413381    -0.27100
F2169       F  0.53723590  0.53128581  0.12125974    -0.19200
H2170       H  0.51784288  0.52861659  0.10316523     0.16500
F2171       F  0.55012527  0.46343185  0.09918843    -0.22900
H2172       H  0.56994681  0.46634203  0.11712814     0.18300
C2173       C  0.08260176  0.60576016  0.17994084    -0.26900
C2174       C  0.06413922  0.61430277  0.18797120     0.06700
C2175       C  0.05498678  0.60228860  0.19592386     0.26300
C2176       C  0.06318766  0.58200705  0.19571867    -0.11400
C2177       C  0.08083307  0.57326174  0.18760092    -0.25400
C2178       C  0.09099799  0.58544424  0.17973616     0.37100
C2179       C  0.05394219  0.63564781  0.18794483     0.06700
F2180       F  0.03845415  0.61021041  0.20393953    -0.19200
H2181       H  0.05548926  0.57310892  0.20193725     0.16500
F2182       F  0.10778641  0.57769876  0.17171601    -0.22900
H2183       H  0.08972055  0.61477382  0.17371725     0.18300
C2184       C  0.08195829  0.65005675  0.18585143     0.26300
C2185       C  0.07190255  0.67008940  0.18557664    -0.11400
C2186       C  0.03375555  0.67624104  0.18741566    -0.25400
C2187       C  0.00575690  0.66182518  0.18963876     0.37200
C2188       C  0.01586129  0.64170241  0.18988059    -0.27100
F2189       F  0.11923549  0.64479795  0.18423097    -0.19200
H2190       H  0.09421510  0.68084558  0.18395811     0.16500
F2191       F  0.96849657  0.66705267  0.19127848    -0.22900
H2192       H  0.99376714  0.63077670  0.19140948     0.18300
C2193       C  0.89240587  0.47322236  0.18279175    -0.26900
C2194       C  0.87099381  0.48888143  0.18674962     0.06700
C2195       C  0.88970665  0.50343409  0.19225995     0.26300
C2196       C  0.92960993  0.50271917  0.19351039    -0.11400
C2197       C  0.95166882  0.48752719  0.18923241    -0.25400
C2198       C  0.93249387  0.47255036  0.18394955     0.37100
C2199       C  0.82885547  0.48966731  0.18550602     0.06700
F2200       F  0.86925569  0.51828807  0.19647477    -0.19200
H2201       H  0.94329691  0.51440519  0.19765165     0.16500
F2202       F  0.95235076  0.45752863  0.17970400    -0.22900
H2203       H  0.87809016  0.46172854  0.17865007     0.18300
C2204       C  0.81128602  0.50539861  0.18050858     0.26300
C2205       C  0.77102057  0.50705407  0.18029037    -0.11400
C2206       C  0.74787699  0.49313149  0.18513462    -0.25400
C2207       C  0.76586403  0.47689865  0.18979380     0.37200
C2208       C  0.80593400  0.47524814  0.18992776    -0.27100
F2209       F  0.83315433  0.51923949  0.17595114    -0.19200
H2210       H  0.75803610  0.51949880  0.17656138     0.16500
F2211       F  0.74493135  0.46264544  0.19434129    -0.22900
H2212       H  0.81919500  0.46300627  0.19376738     0.18300
C2213       C  0.30696631  0.50078661  0.19374744    -0.26900
C2214       C  0.32737420  0.50197640  0.18503302     0.06700
C2215       C  0.30684552  0.50516343  0.17638796     0.26300
C2216       C  0.26646470  0.50697424  0.17654315    -0.11400
C2217       C  0.24612719  0.50545892  0.18529789    -0.25400
C2218       C  0.26702614  0.50263536  0.19392980     0.37100
C2219       C  0.36995899  0.49983653  0.18523918     0.06700
F2220       F  0.32576691  0.50660620  0.16783314    -0.19200
H2221       H  0.25106057  0.50895008  0.16980519     0.16500
F2222       F  0.24889662  0.50141947  0.20261103    -0.22900
H2223       H  0.32202927  0.49809542  0.20047845     0.18300
C2224       C  0.39179970  0.51061851  0.19199626     0.26300
C2225       C  0.43139252  0.50748916  0.19281470    -0.11400
C2226       C  0.45048735  0.49370415  0.18685644    -0.25400
C2227       C  0.42871102  0.48310990  0.17995468     0.37200
C2228       C  0.38877201  0.48613589  0.17920444    -0.27100
F2229       F  0.37489015  0.52443959  0.19775301    -0.19200
H2230       H  0.44718231  0.51616611  0.19808713     0.16500
F2231       F  0.44586566  0.47001562  0.17386328    -0.22900
H2232       H  0.37242136  0.47752924  0.17401196     0.18300
C2233       C  0.17449033  0.35171175  0.19257048    -0.26900
C2234       C  0.19147511  0.36536382  0.18627275     0.06700
C2235       C  0.22510955  0.35994359  0.18121278     0.26300
C2236       C  0.24091865  0.34091990  0.18235861    -0.11400
C2237       C  0.22371272  0.32711870  0.18865278    -0.25400
C2238       C  0.19029287  0.33288853  0.19381309     0.37100
C2239       C  0.17502174  0.38557029  0.18561028     0.06700
F2240       F  0.24216916  0.37290977  0.17504403    -0.19200
H2241       H  0.26638224  0.33693107  0.17823800     0.16500
F2242       F  0.17242093  0.32037975  0.20006457    -0.22900
H2243       H  0.14903324  0.35578230  0.19668548     0.18300
C2244       C  0.13582655  0.38856611  0.18333407     0.26300
C2245       C  0.11978201  0.40763755  0.18375115    -0.11400
C2246       C  0.14236657  0.42389538  0.18663813    -0.25400
C2247       C  0.18182295  0.42083226  0.18871992     0.37200
C2248       C  0.19784187  0.40188372  0.18815776    -0.27100
F2249       F  0.11309038  0.37301744  0.18077478    -0.19200
H2250       H  0.08948923  0.40961892  0.18203978     0.16500
F2251       F  0.20516158  0.43616961  0.19125885    -0.22900
H2252       H  0.22799244  0.39983698  0.19001914     0.18300
C2253       C  0.02148006  0.51419085  0.11608987    -0.26900
C2254       C  0.03617719  0.49701729  0.12052982     0.06700
C2255       C  0.04120216  0.47984021  0.11488057     0.26300
C2256       C  0.03292284  0.48009626  0.10498071    -0.11400
C2257       C  0.01894060  0.49736185  0.10046379    -0.25400
C2258       C  0.01272284  0.51439186  0.10618576     0.37100
C2259       C  0.04698993  0.49710590  0.13096411     0.06700
F2260       F  0.05557873  0.46297948  0.11885285    -0.19200
H2261       H  0.03794668  0.46673649  0.10080352     0.16500
F2262       F  0.99962093  0.53147707  0.10217071    -0.22900
H2263       H  0.01695891  0.52754556  0.12030582     0.18300
C2264       C  0.07211896  0.51158229  0.13474757     0.26300
C2265       C  0.08331515  0.51101029  0.14448738    -0.11400
C2266       C  0.06962383  0.49605751  0.15070915    -0.25400
C2267       C  0.04396322  0.48172251  0.14690331     0.37200
C2268       C  0.03299228  0.48228313  0.13716711    -0.27100
F2269       F  0.08676890  0.52598344  0.12895970    -0.19200
H2270       H  0.10284400  0.52230443  0.14714577     0.16500
F2271       F  0.02918393  0.46711363  0.15255111    -0.22900
H2272       H  0.01327320  0.47111036  0.13446430     0.18300
C2273       C  0.93282296  0.01796892  0.81785907    -0.26900
C2274       C  0.90895575  0.00293130  0.81421830     0.06700
C2275       C  0.92531448  0.98444456  0.81179364     0.26300
C2276       C  0.96510673  0.98136778  0.81275304    -0.11400
C2277       C  0.98897217  0.99651735  0.81632752    -0.25400
C2278       C  0.97235170  0.01483160  0.81895350     0.37100
C2279       C  0.86723591  0.00678802  0.81283655     0.06700
F2280       F  0.90278376  0.96933986  0.80857144    -0.19200
H2281       H  0.97731164  0.96719820  0.81066725     0.16500
F2282       F  0.99460553  0.03016683  0.82204468    -0.22900
H2283       H  0.92096911  0.03240230  0.81962030     0.18300
C2284       C  0.84477759  0.01481185  0.82034737     0.26300
C2285       C  0.80509213  0.01742373  0.81912434    -0.11400
C2286       C  0.78699440  0.01193709  0.81043747    -0.25400
C2287       C  0.80985816  0.00493197  0.80274279     0.37200
C2288       C  0.84959909  0.00241942  0.80395809    -0.27100
F2289       F  0.86077770  0.01907814  0.82905607    -0.19200
H2290       H  0.78821483  0.02269600  0.82519443     0.16500
F2291       F  0.79375864  0.00009359  0.79411682    -0.22900
H2292       H  0.86660166  0.99678409  0.79798771     0.18300
C2293       C  0.34908042  0.01927881  0.80983528    -0.26900
C2294       C  0.36744400  0.00083147  0.81128545     0.06700
C2295       C  0.34462936  0.98369022  0.81198401     0.26300
C2296       C  0.30454200  0.98503028  0.81145143    -0.11400
C2297       C  0.28594869  0.00344359  0.81019021    -0.25400
C2298       C  0.30867584  0.02060893  0.80924115     0.37100
C2299       C  0.41026636  0.99933397  0.81173771     0.06700
F2300       F  0.36107527  0.96552888  0.81301431    -0.19200
H2301       H  0.28788137  0.97148196  0.81210943     0.16500
F2302       F  0.29195554  0.03867490  0.80814393    -0.22900
H2303       H  0.36605507  0.03274179  0.80932401     0.18300
C2304       C  0.43304471  0.00842900  0.80463619     0.26300
C2305       C  0.47309249  0.00664030  0.80488849    -0.11400
C2306       C  0.49181434  0.99576332  0.81221963    -0.25400
C2307       C  0.46905064  0.98641496  0.81930072     0.37200
C2308       C  0.42865637  0.98826505  0.81905424    -0.27100
F2309       F  0.41657643  0.01868705  0.79727666    -0.19200
H2310       H  0.48951284  0.01392614  0.79925071     0.16500
F2311       F  0.48565674  0.97589390  0.82654644    -0.22900
H2312       H  0.41169020  0.98120153  0.82465771     0.18300
C2313       C  0.79107042  0.99233688  0.98873399    -0.26900
C2314       C  0.75961753  0.99859986  0.99439277     0.06700
C2315       C  0.72549329  0.00456774  0.98967328     0.26300
C2316       C  0.72304057  0.00417940  0.97956434    -0.11400
C2317       C  0.75424677  0.99755592  0.97392739    -0.25400
C2318       C  0.78844449  0.99170707  0.97863207     0.37100
C2319       C  0.76247272  0.99879573  0.00516376     0.06700
F2320       F  0.69402636  0.01020652  0.99483480    -0.19200
H2321       H  0.69635143  0.00868819  0.97614228     0.16500
F2322       F  0.81977415  0.98588905  0.97346544    -0.22900
H2323       H  0.81793586  0.98808174  0.99214138     0.18300
C2324       C  0.77696125  0.98232079  0.01026355     0.26300
C2325       C  0.77846330  0.98247875  0.02038697    -0.11400
C2326       C  0.76544875  0.99900208  0.02569747    -0.25400
C2327       C  0.75164764  0.01564337  0.02056361     0.37200
C2328       C  0.75029882  0.01548562  0.01044461    -0.27100
F2329       F  0.78845549  0.96574420  0.00548677    -0.19200
H2330       H  0.78919042  0.96944094  0.02407362     0.16500
F2331       F  0.73952563  0.03217881  0.02527710    -0.22900
H2332       H  0.73980418  0.02852528  0.00671654     0.18300
C2333       C  0.65326304  0.98266899  0.86486844    -0.26900
C2334       C  0.67465646  0.99814813  0.86915378     0.06700
C2335       C  0.68514753  0.01444592  0.86337374     0.26300
C2336       C  0.67563667  0.01492079  0.85355769    -0.11400
C2337       C  0.65507755  0.99928539  0.84916977    -0.25400
C2338       C  0.64339565  0.98321604  0.85501009     0.37100
C2339       C  0.68672632  0.99718241  0.87953445     0.06700
F2340       F  0.70430908  0.03014050  0.86722956    -0.19200
H2341       H  0.68471297  0.02764597  0.84936510     0.16500
F2342       F  0.62339991  0.96776774  0.85118773    -0.22900
H2343       H  0.64497062  0.96985980  0.86910021     0.18300
C2344       C  0.66052329  0.99177359  0.88684905     0.26300
C2345       C  0.67233795  0.99112893  0.89653466    -0.11400
C2346       C  0.71039993  0.99606398  0.89922647    -0.25400
C2347       C  0.73655843  0.00156152  0.89191720     0.37200
C2348       C  0.72487692  0.00192357  0.88221270    -0.27100
F2349       F  0.62312930  0.98768049  0.88469747    -0.19200
H2350       H  0.65132649  0.98703603  0.90197297     0.16500
F2351       F  0.77365250  0.00625374  0.89409091    -0.22900
H2352       H  0.74592769  0.00579069  0.87674927     0.18300
C2353       C  0.24291574  0.98336311  0.00911684    -0.26900
C2354       C  0.26112510  0.99831054  0.00378215     0.06700
C2355       C  0.28057435  0.01367272  0.00859979     0.26300
C2356       C  0.28170900  0.01402237  0.01867550    -0.11400
C2357       C  0.26305950  0.99918634  0.02407522    -0.25400
C2358       C  0.24361724  0.98377446  0.01917470     0.37100
C2359       C  0.25835248  0.99810734  0.99319479     0.06700
F2360       F  0.29871781  0.02820508  0.00355079    -0.19200
H2361       H  0.29683535  0.02602851  0.02224440     0.16500
F2362       F  0.22536916  0.96902041  0.02404882    -0.22900
H2363       H  0.22755564  0.97152545  0.00546859     0.18300
C2364       C  0.27174430  0.98179193  0.98786765     0.26300
C2365       C  0.26750293  0.98146033  0.97785262    -0.11400
C2366       C  0.24960285  0.99733569  0.97300328    -0.25400
C2367       C  0.23628497  0.01369638  0.97841366     0.37200
C2368       C  0.24078379  0.01402265  0.98841819    -0.27100
F2369       F  0.28937087  0.96633448  0.99234661    -0.19200
H2370       H  0.27829929  0.96873751  0.97390312     0.16500
F2371       F  0.21910040  0.02945605  0.97409020    -0.22900
H2372       H  0.23004062  0.02661469  0.99247904     0.18300
C2373       C  0.95356446  0.99050851  0.94224679    -0.26900
C2374       C  0.97130282  0.00287051  0.93538695     0.06700
C2375       C  0.94872317  0.01072619  0.92785957     0.26300
C2376       C  0.90933341  0.00643958  0.92728853    -0.11400
C2377       C  0.89125195  0.99435329  0.93423217    -0.25400
C2378       C  0.91400575  0.98629624  0.94172278     0.37100
C2379       C  0.01363854  0.00651123  0.93574453     0.06700
F2380       F  0.96449671  0.02303452  0.92117602    -0.19200
H2381       H  0.89278336  0.01308771  0.92150039     0.16500
F2382       F  0.89814049  0.97459707  0.94864494    -0.22900
H2383       H  0.97047256  0.98391816  0.94798750     0.18300
C2384       C  0.03262268  0.01187963  0.94438082     0.26300
C2385       C  0.07304176  0.01355895  0.94462841    -0.11400
C2386       C  0.09496685  0.00978133  0.93629809    -0.25400
C2387       C  0.07571130  0.00547075  0.92758569     0.37200
C2388       C  0.03566406  0.00375103  0.92735365    -0.27100
F2389       F  0.01218915  0.01522796  0.95258746    -0.19200
H2390       H  0.08725057  0.01685465  0.95141345     0.16500
F2391       F  0.09578188  0.00232350  0.91929463    -0.22900
H2392       H  0.02195466  0.99949342  0.92063194     0.18300
C2393       C  0.53610685  0.97797961  0.94124724    -0.26900
C2394       C  0.51364214  0.99522908  0.94139196     0.06700
C2395       C  0.53207971  0.01381063  0.94217032     0.26300
C2396       C  0.57253247  0.01502582  0.94229635    -0.11400
C2397       C  0.59500241  0.99775572  0.94152795    -0.25400
C2398       C  0.57627972  0.97915320  0.94127332     0.37100
C2399       C  0.47132222  0.99351636  0.94008218     0.06700
F2400       F  0.51097807  0.03074961  0.94264752    -0.19200
H2401       H  0.58622191  0.02947048  0.94256021     0.16500
F2402       F  0.59680941  0.96200786  0.94084414    -0.22900
H2403       H  0.52247279  0.96354194  0.94071077     0.18300
C2404       C  0.45307014  0.00286835  0.93226620     0.26300
C2405       C  0.41351381  0.00032558  0.93072503    -0.11400
C2406       C  0.39114469  0.98844537  0.93695776    -0.25400
C2407       C  0.40970985  0.97883474  0.94472473     0.37200
C2408       C  0.44944285  0.98127899  0.94620200    -0.27100
F2409       F  0.47367372  0.01413239  0.92597913    -0.19200
H2410       H  0.40032552  0.00796906  0.92470201     0.16500
F2411       F  0.38952741  0.96746020  0.95104495    -0.22900
H2412       H  0.46314068  0.97377408  0.95219886     0.18300
C2413       C  0.21334198  0.99039786  0.86309761    -0.26900
C2414       C  0.19463467  0.00349143  0.86938285     0.06700
C2415       C  0.16370496  0.01503714  0.86602026     0.26300
C2416       C  0.15117123  0.01313258  0.85649434    -0.11400
C2417       C  0.16938010  0.99972284  0.85019464    -0.25400
C2418       C  0.20087657  0.98841672  0.85358971     0.37100
C2419       C  0.20508608  0.00342269  0.87965282     0.06700
F2420       F  0.14561908  0.02809301  0.87196765    -0.19200
H2421       H  0.12735510  0.02222903  0.85404956     0.16500
F2422       F  0.21943640  0.97521167  0.84781280    -0.22900
H2423       H  0.23689603  0.98123607  0.86565306     0.18300
C2424       C  0.17728998  0.99805938  0.88651048     0.26300
C2425       C  0.18747603  0.99636777  0.89616138    -0.11400
C2426       C  0.22556092  0.00000573  0.89919826    -0.25400
C2427       C  0.25344329  0.00565215  0.89233577     0.37200
C2428       C  0.24320877  0.00715398  0.88258704    -0.27100
F2429       F  0.14054144  0.99372843  0.88382018    -0.19200
H2430       H  0.16525288  0.99218111  0.90128120     0.16500
F2431       F  0.29051135  0.00926033  0.89498144    -0.22900
H2432       H  0.26499318  0.01111919  0.87730828     0.18300
C2433       C  0.04246514  0.14174298  0.82407489    -0.26900
C2434       C  0.05124190  0.13157978  0.81547139     0.06700
C2435       C  0.04025249  0.13996943  0.80659646     0.26300
C2436       C  0.02244127  0.15856481  0.80634391    -0.11400
C2437       C  0.01443654  0.16890897  0.81492588    -0.25400
C2438       C  0.02418200  0.16025838  0.82382432     0.37100
C2439       C  0.07036248  0.11190867  0.81584240     0.06700
F2440       F  0.04622520  0.13007038  0.79818377    -0.19200
H2441       H  0.01516675  0.16501760  0.79941503     0.16500
F2442       F  0.01819960  0.17021593  0.83222048    -0.22900
H2443       H  0.05057183  0.13550357  0.83099090     0.18300
C2444       C  0.10335330  0.10760996  0.81026570     0.26300
C2445       C  0.11948213  0.08851541  0.81036647    -0.11400
C2446       C  0.10320157  0.07345914  0.81609171    -0.25400
C2447       C  0.07077900  0.07811253  0.82188883     0.37200
C2448       C  0.05478518  0.09708217  0.82173955    -0.27100
F2449       F  0.12015127  0.12190006  0.80478431    -0.19200
H2450       H  0.14442912  0.08547803  0.80589743     0.16500
F2451       F  0.05336694  0.06422427  0.82750159    -0.22900
H2452       H  0.02938189  0.10005266  0.82606496     0.18300
C2453       C  0.69164915  0.25714860  0.81216221    -0.26900
C2454       C  0.70876570  0.24065013  0.81666129     0.06700
C2455       C  0.68549312  0.22779461  0.82213943     0.26300
C2456       C  0.64587582  0.23118870  0.82290193    -0.11400
C2457       C  0.62848030  0.24728623  0.81812484    -0.25400
C2458       C  0.65188261  0.26040226  0.81281048     0.37100
C2459       C  0.75082934  0.23707623  0.81566646     0.06700
F2460       F  0.70070342  0.21145900  0.82642489    -0.19200
H2461       H  0.62857707  0.22069061  0.82694607     0.16500
F2462       F  0.63644111  0.27630176  0.80820176    -0.22900
H2463       H  0.70912953  0.26754594  0.80810823     0.18300
C2464       C  0.76906212  0.23844832  0.80660420     0.26300
C2465       C  0.80913243  0.23667744  0.80588526    -0.11400
C2466       C  0.83165579  0.23308880  0.81413202    -0.25400
C2467       C  0.81329221  0.23073976  0.82311663     0.37200
C2468       C  0.77329109  0.23289527  0.82386610    -0.27100
F2469       F  0.74819182  0.24160679  0.79844956    -0.19200
H2470       H  0.82269872  0.23846199  0.79888642     0.16500
F2471       F  0.83418385  0.22775966  0.83128122    -0.22900
H2472       H  0.76003819  0.23203520  0.83093931     0.18300
C2473       C  0.18710237  0.24123174  0.80579755    -0.26900
C2474       C  0.20856858  0.24921815  0.81340792     0.06700
C2475       C  0.18928172  0.25944292  0.82086754     0.26300
C2476       C  0.14885252  0.26082762  0.82085301    -0.11400
C2477       C  0.12720352  0.25218835  0.81336390    -0.25400
C2478       C  0.14703575  0.24275463  0.80570014     0.37100
C2479       C  0.25109829  0.24719115  0.81327220     0.06700
F2480       F  0.20942485  0.26748604  0.82831379    -0.19200
H2481       H  0.13449181  0.26815097  0.82682215     0.16500
F2482       F  0.12784510  0.23481416  0.79806728    -0.22900
H2483       H  0.20151663  0.23381337  0.79985881     0.18300
C2484       C  0.26883585  0.22845445  0.81232912     0.26300
C2485       C  0.30917576  0.22686862  0.81192434    -0.11400
C2486       C  0.33225821  0.24392999  0.81249503    -0.25400
C2487       C  0.31423830  0.26267925  0.81317905     0.37200
C2488       C  0.27415398  0.26421242  0.81359479    -0.27100
F2489       F  0.24714979  0.21167993  0.81208636    -0.19200
H2490       H  0.32235290  0.21231931  0.81148787     0.16500
F2491       F  0.33542110  0.27964309  0.81338160    -0.22900
H2492       H  0.26102003  0.27877678  0.81406425     0.18300
C2493       C  0.58629343  0.10785408  0.80674240    -0.26900
C2494       C  0.56924355  0.11376092  0.81551445     0.06700
C2495       C  0.57216906  0.10098520  0.82355556     0.26300
C2496       C  0.59163910  0.08284557  0.82277714    -0.11400
C2497       C  0.60737792  0.07676316  0.81392626    -0.25400
C2498       C  0.60473812  0.08944515  0.80591107     0.37100
C2499       C  0.54817430  0.13305107  0.81612141     0.06700
F2500       F  0.55423359  0.10539588  0.83200563    -0.19200
H2501       H  0.59234235  0.07297651  0.82895026     0.16500
F2502       F  0.61961819  0.08389473  0.79724871    -0.22900
H2503       H  0.58490795  0.11742194  0.80047139     0.18300
C2504       C  0.55420165  0.14610538  0.82390310     0.26300
C2505       C  0.53555260  0.16446471  0.82418471    -0.11400
C2506       C  0.51108453  0.17067283  0.81662947    -0.25400
C2507       C  0.50454317  0.15750159  0.80889562     0.37200
C2508       C  0.52280212  0.13889595  0.80869363    -0.27100
F2509       F  0.57988273  0.14171219  0.83099041    -0.19200
H2510       H  0.54168986  0.17420803  0.83022154     0.16500
F2511       F  0.48179232  0.16280513  0.80135201    -0.22900
H2512       H  0.51748882  0.12910807  0.80262512     0.18300
C2513       C  0.89743210  0.26367725  0.99047913    -0.26900
C2514       C  0.87816195  0.24857957  0.99555535     0.06700
C2515       C  0.86296841  0.23238084  0.99038594     0.26300
C2516       C  0.86704936  0.23139869  0.98036229    -0.11400
C2517       C  0.88680576  0.24634889  0.97529751    -0.25400
C2518       C  0.90208999  0.26253840  0.98047004     0.37100
C2519       C  0.87456464  0.24968050  0.00621880     0.06700
F2520       F  0.84513685  0.21719620  0.99503515    -0.19200
H2521       H  0.85521046  0.21871499  0.97656965     0.16500
F2522       F  0.92074552  0.27751250  0.97586321    -0.22900
H2523       H  0.90871330  0.27649472  0.99426939     0.18300
C2524       C  0.90669807  0.25448215  0.01197176     0.26300
C2525       C  0.90322960  0.25530986  0.02199833    -0.11400
C2526       C  0.86789537  0.25106929  0.02653131    -0.25400
C2527       C  0.83567190  0.24626107  0.02079191     0.37200
C2528       C  0.83900749  0.24576030  0.01072934    -0.27100
F2529       F  0.94185953  0.25772913  0.00794030    -0.19200
H2530       H  0.92859435  0.25882591  0.02623431     0.16500
F2531       F  0.80085628  0.24228276  0.02486035    -0.22900
H2532       H  0.81369092  0.24238484  0.00645134     0.18300
C2533       C  0.79705631  0.09927670  0.94477065    -0.26900
C2534       C  0.81005206  0.10840810  0.93622462     0.06700
C2535       C  0.80524140  0.09827699  0.92741696     0.26300
C2536       C  0.78823687  0.07940480  0.92722384    -0.11400
C2537       C  0.77522592  0.07027288  0.93576951    -0.25400
C2538       C  0.77972382  0.08048485  0.94457171     0.37100
C2539       C  0.82783750  0.12857012  0.93658285     0.06700
F2540       F  0.81636649  0.10673745  0.91896816    -0.19200
H2541       H  0.78537013  0.07184975  0.92035050     0.16500
F2542       F  0.76920257  0.07193539  0.95304862    -0.22900
H2543       H  0.80099387  0.10658482  0.95167353     0.18300
C2544       C  0.80976978  0.14388697  0.94177061     0.26300
C2545       C  0.82648367  0.16270145  0.94225869    -0.11400
C2546       C  0.86152005  0.16699014  0.93751219    -0.25400
C2547       C  0.87953448  0.15173329  0.93221063     0.37200
C2548       C  0.86288000  0.13270043  0.93180769    -0.27100
F2549       F  0.77517543  0.14087333  0.94614469    -0.19200
H2550       H  0.81124283  0.17410635  0.94624647     0.16500
F2551       F  0.91317234  0.15511273  0.92746384    -0.22900
H2552       H  0.87756203  0.12111340  0.92781702     0.18300
C2553       C  0.96267985  0.26417477  0.86608679    -0.26900
C2554       C  0.95600198  0.24629734  0.87104604     0.06700
C2555       C  0.95649577  0.22836727  0.86584447     0.26300
C2556       C  0.96340473  0.22837939  0.85591120    -0.11400
C2557       C  0.97006583  0.24620784  0.85091681    -0.25400
C2558       C  0.96985105  0.26417786  0.85611523     0.37100
C2559       C  0.94688512  0.24636345  0.88152903     0.06700
F2560       F  0.94873259  0.21086313  0.87029130    -0.19200
H2561       H  0.96311702  0.21434240  0.85208468     0.16500
F2562       F  0.97490590  0.28177288  0.85151876    -0.22900
H2563       H  0.96211916  0.27816883  0.86994583     0.18300
C2564       C  0.96666195  0.23381234  0.88794610     0.26300
C2565       C  0.95570713  0.23278254  0.89764925    -0.11400
C2566       C  0.92511980  0.24441240  0.90122696    -0.25400
C2567       C  0.90629618  0.25755751  0.89485580     0.37200
C2568       C  0.91710460  0.25843832  0.88511315    -0.27100
F2569       F  0.99691043  0.22268254  0.88485462    -0.19200
H2570       H  0.97145573  0.22288625  0.90238299     0.16500
F2571       F  0.87700755  0.26932462  0.89795338    -0.22900
H2572       H  0.90154094  0.26824587  0.88029669     0.18300
C2573       C  0.37868979  0.23172614  0.99331960    -0.26900
C2574       C  0.38563290  0.24992882  0.99795063     0.06700
C2575       C  0.39774223  0.26629462  0.99239672     0.26300
C2576       C  0.40253695  0.26438579  0.98240427    -0.11400
C2577       C  0.39465861  0.24628834  0.97778053    -0.25400
C2578       C  0.38278770  0.22992695  0.98332889     0.37100
C2579       C  0.38066385  0.25155136  0.00856293     0.06700
F2580       F  0.40370605  0.28427222  0.99657293    -0.19200
H2581       H  0.41127802  0.27722636  0.97823107     0.16500
F2582       F  0.37583284  0.21208207  0.97911250    -0.22900
H2583       H  0.37025110  0.21880233  0.99746488     0.18300
C2584       C  0.34734896  0.24413095  0.01312498     0.26300
C2585       C  0.34375165  0.24494447  0.02317346    -0.11400
C2586       C  0.37314798  0.25325460  0.02888576    -0.25400
C2587       C  0.40629647  0.26094174  0.02427729     0.37200
C2588       C  0.40991184  0.26000999  0.01423696    -0.27100
F2589       F  0.31800265  0.23629655  0.00786066    -0.19200
H2590       H  0.31786907  0.23903287  0.02647727     0.16500
F2591       F  0.43574669  0.26898134  0.02943459    -0.22900
H2592       H  0.43606428  0.26553612  0.01090303     0.18300
C2593       C  0.60554323  0.22324615  0.93061545    -0.26900
C2594       C  0.62700230  0.23849656  0.93497743     0.06700
C2595       C  0.60831595  0.25194198  0.94113876     0.26300
C2596       C  0.56881496  0.25023154  0.94285985    -0.11400
C2597       C  0.54691084  0.23517589  0.93841935    -0.25400
C2598       C  0.56578575  0.22160248  0.93225998     0.37100
C2599       C  0.66927079  0.23965921  0.93367368     0.06700
F2600       F  0.62846765  0.26650063  0.94567860    -0.19200
H2601       H  0.55529678  0.26100144  0.94758140     0.16500
F2602       F  0.54599445  0.20685598  0.92776895    -0.22900
H2603       H  0.61962017  0.21267162  0.92588631     0.18300
C2604       C  0.69250347  0.22352567  0.93631774     0.26300
C2605       C  0.73250964  0.22549455  0.93640575    -0.11400
C2606       C  0.75020249  0.24347524  0.93375888    -0.25400
C2607       C  0.72712819  0.25931011  0.93058566     0.37200
C2608       C  0.68683482  0.25742362  0.93062686    -0.27100
F2609       F  0.67648230  0.20623465  0.93936627    -0.19200
H2610       H  0.74976579  0.21298770  0.93876047     0.16500
F2611       F  0.74329433  0.27686411  0.92799102    -0.22900
H2612       H  0.66924040  0.26998616  0.92852672     0.18300
C2613       C  0.10736185  0.22304036  0.93350436    -0.26900
C2614       C  0.12689520  0.23843439  0.93827985     0.06700
C2615       C  0.10590836  0.25196671  0.94388745     0.26300
C2616       C  0.06587940  0.25030548  0.94458876    -0.11400
C2617       C  0.04580831  0.23521785  0.93963331    -0.25400
C2618       C  0.06711423  0.22145913  0.93410259     0.37100
C2619       C  0.16934713  0.23988556  0.93781500     0.06700
F2620       F  0.12425833  0.26664410  0.94880164    -0.19200
H2621       H  0.05055260  0.26115257  0.94890822     0.16500
F2622       F  0.04921602  0.20672614  0.92913264    -0.22900
H2623       H  0.12333219  0.21238744  0.92921164     0.18300
C2624       C  0.19212845  0.22484388  0.94181943     0.26300
C2625       C  0.23212579  0.22693868  0.94216105    -0.11400
C2626       C  0.25035525  0.24398088  0.93841830    -0.25400
C2627       C  0.22750522  0.25878261  0.93409389     0.37200
C2628       C  0.18722418  0.25679313  0.93390208    -0.27100
F2629       F  0.17554991  0.20844721  0.94572975    -0.19200
H2630       H  0.24886828  0.21513418  0.94541535     0.16500
F2631       F  0.24383962  0.27534723  0.93030391    -0.22900
H2632       H  0.16987562  0.26851277  0.93077437     0.18300
C2633       C  0.35644461  0.13634607  0.93127032    -0.26900
C2634       C  0.33671524  0.12819244  0.93920486     0.06700
C2635       C  0.33538032  0.13892737  0.94790394     0.26300
C2636       C  0.35171431  0.15786003  0.94846151    -0.11400
C2637       C  0.37015678  0.16639256  0.94041111    -0.25400
C2638       C  0.37310415  0.15522489  0.93184216     0.37100
C2639       C  0.31842387  0.10835015  0.93836894     0.06700
F2640       F  0.31860173  0.13105861  0.95589407    -0.19200
H2641       H  0.34936870  0.16600197  0.95518578     0.16500
F2642       F  0.39028907  0.16287154  0.92385654    -0.22900
H2643       H  0.35807112  0.12826665  0.92451421     0.18300
C2644       C  0.27990474  0.10502567  0.94123305     0.26300
C2645       C  0.26360443  0.08603319  0.94049639    -0.11400
C2646       C  0.28517418  0.07017462  0.93672275    -0.25400
C2647       C  0.32353659  0.07367836  0.93373369     0.37200
C2648       C  0.33980459  0.09252608  0.93456939    -0.27100
F2649       F  0.25775744  0.12020625  0.94452539    -0.19200
H2650       H  0.23404515  0.08377240  0.94278429     0.16500
F2651       F  0.34601321  0.05875194  0.93029390    -0.22900
H2652       H  0.36952007  0.09469729  0.93238067     0.18300
C2653       C  0.41416092  0.26270227  0.88825939    -0.26900
C2654       C  0.42656791  0.24555339  0.88337117     0.06700
C2655       C  0.42922156  0.22759720  0.88848725     0.26300
C2656       C  0.42050095  0.22696126  0.89831872    -0.11400
C2657       C  0.40863948  0.24413768  0.90326718    -0.25400
C2658       C  0.40506292  0.26203908  0.89810329     0.37100
C2659       C  0.43692993  0.24643092  0.87298253     0.06700
F2660       F  0.43984606  0.21056885  0.88396441    -0.19200
H2661       H  0.42325399  0.21295110  0.90208079     0.16500
F2662       F  0.39432408  0.27906597  0.90260942    -0.22900
H2663       H  0.41233830  0.27674942  0.88449776     0.18300
C2664       C  0.41225563  0.25554664  0.86626966     0.26300
C2665       C  0.42187425  0.25583937  0.85647609    -0.11400
C2666       C  0.45614736  0.24695219  0.85313106    -0.25400
C2667       C  0.48101316  0.23796034  0.85987913     0.37200
C2668       C  0.47150799  0.23784411  0.86969750    -0.27100
F2669       F  0.37818726  0.26360631  0.86911775    -0.19200
H2670       H  0.40198703  0.26277076  0.85148214     0.16500
F2671       F  0.51455164  0.22932548  0.85704506    -0.22900
H2672       H  0.49129037  0.23104077  0.87475971     0.18300
C2673       C  0.68375113  0.89650548  0.82152029    -0.26900
C2674       C  0.70195727  0.88725200  0.81363008     0.06700
C2675       C  0.70680715  0.89812641  0.80503734     0.26300
C2676       C  0.69341576  0.91772791  0.80439274    -0.11400
C2677       C  0.67442740  0.92682781  0.81223195    -0.25400
C2678       C  0.67008336  0.91600170  0.82085511     0.37100
C2679       C  0.71232271  0.86580960  0.81422233     0.06700
F2680       F  0.72293821  0.88957535  0.79712605    -0.19200
H2681       H  0.69736178  0.92570345  0.79767580     0.16500
F2682       F  0.65343254  0.92436485  0.82874417    -0.22900
H2683       H  0.67988887  0.88852035  0.82823825     0.18300
C2684       C  0.74861809  0.85846136  0.81129175     0.26300
C2685       C  0.75635337  0.83797426  0.81159192    -0.11400
C2686       C  0.72833587  0.82453033  0.81497319    -0.25400
C2687       C  0.69246512  0.83207506  0.81810228     0.37200
C2688       C  0.68470994  0.85236441  0.81769116    -0.27100
F2689       F  0.77679930  0.87105660  0.80831952    -0.19200
H2690       H  0.78428058  0.83264277  0.80923060     0.16500
F2691       F  0.66402455  0.81980640  0.82124588    -0.22900
H2692       H  0.65648974  0.85755735  0.81990946     0.18300
C2693       C  0.18712375  0.85031441  0.80338649    -0.26900
C2694       C  0.19252993  0.86157306  0.81177286     0.06700
C2695       C  0.21081634  0.85285425  0.81979737     0.26300
C2696       C  0.22341573  0.83314811  0.81939342    -0.11400
C2697       C  0.21773942  0.82174905  0.81101780    -0.25400
C2698       C  0.19964039  0.83065532  0.80295818     0.37100
C2699       C  0.18045009  0.88261668  0.81194617     0.06700
F2700       F  0.21558137  0.86324814  0.82811639    -0.19200
H2701       H  0.23668817  0.82666706  0.82572948     0.16500
F2702       F  0.19395154  0.82044953  0.79461713    -0.22900
H2703       H  0.17357228  0.85686256  0.79709762     0.18300
C2704       C  0.20725111  0.89736758  0.81437834     0.26300
C2705       C  0.19612927  0.91717648  0.81459566    -0.11400
C2706       C  0.15816651  0.92287187  0.81226887    -0.25400
C2707       C  0.13140693  0.90817831  0.80957412     0.37200
C2708       C  0.14257676  0.88815838  0.80942994    -0.27100
F2709       F  0.24459902  0.89268564  0.81628299    -0.19200
H2710       H  0.21770897  0.92816611  0.81646859     0.16500
F2711       F  0.09451484  0.91305808  0.80729371    -0.22900
H2712       H  0.12160338  0.87694088  0.80745468     0.18300
C2713       C  0.95464036  0.73758970  0.81924380    -0.26900
C2714       C  0.97191214  0.74513613  0.81085060     0.06700
C2715       C  0.94892420  0.75489628  0.80398322     0.26300
C2716       C  0.90951672  0.75743975  0.80561023    -0.11400
C2717       C  0.89201609  0.75004491  0.81403997    -0.25400
C2718       C  0.91506970  0.73993810  0.82084819     0.37100
C2719       C  0.01406220  0.74338237  0.80945533     0.06700
F2720       F  0.96440611  0.76154883  0.79557624    -0.19200
H2721       H  0.89254629  0.76483042  0.80011834     0.16500
F2722       F  0.89955564  0.73216779  0.82901850    -0.22900
H2723       H  0.97195100  0.73004012  0.82462125     0.18300
C2724       C  0.03623570  0.76032670  0.80744266     0.26300
C2725       C  0.07608900  0.75880032  0.80640261    -0.11400
C2726       C  0.09483105  0.74046139  0.80755338    -0.25400
C2727       C  0.07268722  0.72344451  0.80953940     0.37200
C2728       C  0.03254901  0.72493567  0.81045111    -0.27100
F2729       F  0.01959891  0.77854142  0.80694740    -0.19200
H2730       H  0.09250572  0.77222658  0.80509242     0.16500
F2731       F  0.08974594  0.70544877  0.81060251    -0.22900
H2732       H  0.01585473  0.71170774  0.81198860     0.18300
C2733       C  0.45019873  0.75359569  0.82216759    -0.26900
C2734       C  0.47096735  0.75012790  0.81359715     0.06700
C2735       C  0.45125899  0.74983085  0.80476567     0.26300
C2736       C  0.41133076  0.75235239  0.80453914    -0.11400
C2737       C  0.39009887  0.75513726  0.81310998    -0.25400
C2738       C  0.40999761  0.75603085  0.82195659     0.37100
C2739       C  0.51336428  0.74765710  0.81380629     0.06700
F2740       F  0.47070692  0.74725676  0.79634185    -0.19200
H2741       H  0.39681494  0.75170101  0.79761506     0.16500
F2742       F  0.39055770  0.75817562  0.83040598    -0.22900
H2743       H  0.46510134  0.75397954  0.82904352     0.18300
C2744       C  0.53657697  0.76297578  0.81738262     0.26300
C2745       C  0.57659747  0.76116882  0.81722357    -0.11400
C2746       C  0.59464154  0.74399607  0.81352719    -0.25400
C2747       C  0.57128864  0.72852088  0.80997392     0.37200
C2748       C  0.53091809  0.73043151  0.81008635    -0.27100
F2749       F  0.52053065  0.78001018  0.82075353    -0.19200
H2750       H  0.59349203  0.77348454  0.81994915     0.16500
F2751       F  0.58724378  0.71156735  0.80649684    -0.22900
H2752       H  0.51327360  0.71845187  0.80729860     0.18300
C2753       C  0.61136917  0.76330719  0.98880211    -0.26900
C2754       C  0.62284787  0.74737715  0.99461699     0.06700
C2755       C  0.63816254  0.73023393  0.99033608     0.26300
C2756       C  0.64225331  0.72915005  0.98033223    -0.11400
C2757       C  0.63077426  0.74507025  0.97443560    -0.25400
C2758       C  0.61505932  0.76220129  0.97878303     0.37100
C2759       C  0.61943203  0.74880422  0.00517015     0.06700
F2760       F  0.64993267  0.71473260  0.99585802    -0.19200
H2761       H  0.65427747  0.71577090  0.97720618     0.16500
F2762       F  0.60363430  0.77798841  0.97341239    -0.22900
H2763       H  0.59939093  0.77658987  0.99204332     0.18300
C2764       C  0.63916581  0.76369328  0.01024312     0.26300
C2765       C  0.63720615  0.76439305  0.02029342    -0.11400
C2766       C  0.61521423  0.75037425  0.02543003    -0.25400
C2767       C  0.59474753  0.73570909  0.02027208     0.37200
C2768       C  0.59711196  0.73492602  0.01022225    -0.27100
F2769       F  0.66119889  0.77719402  0.00548879    -0.19200
H2770       H  0.65303559  0.77591003  0.02404790     0.16500
F2771       F  0.57291865  0.72193472  0.02489418    -0.22900
H2772       H  0.58155472  0.72345559  0.00635901     0.18300
C2773       C  0.73651811  0.88556153  0.94375013    -0.26900
C2774       C  0.71091317  0.87747654  0.93691650     0.06700
C2775       C  0.69626681  0.88979231  0.92961670     0.26300
C2776       C  0.70584551  0.90991864  0.92938958    -0.11400
C2777       C  0.73023910  0.91833301  0.93643402    -0.25400
C2778       C  0.74613905  0.90579918  0.94354307     0.37100
C2779       C  0.69889922  0.85634429  0.93748119     0.06700
F2780       F  0.67268433  0.88233660  0.92267139    -0.19200
H2781       H  0.69347218  0.91901765  0.92373740     0.16500
F2782       F  0.76969715  0.91315180  0.95051140    -0.22900
H2783       H  0.74818124  0.87629311  0.94943163     0.18300
C2784       C  0.72648079  0.84108934  0.93757651     0.26300
C2785       C  0.71474140  0.82123397  0.93771599    -0.11400
C2786       C  0.67530934  0.81613554  0.93790263    -0.25400
C2787       C  0.64769270  0.83141227  0.93800019     0.37200
C2788       C  0.65947082  0.85131693  0.93773005    -0.27100
F2789       F  0.76475879  0.84536095  0.93722401    -0.19200
H2790       H  0.73666015  0.80977270  0.93766980     0.16500
F2791       F  0.60940854  0.82714049  0.93801638    -0.22900
H2792       H  0.63774971  0.86287106  0.93770177     0.18300
C2793       C  0.71523531  0.74634109  0.88773036    -0.26900
C2794       C  0.69202476  0.73575467  0.88128922     0.06700
C2795       C  0.65913074  0.72579296  0.88467407     0.26300
C2796       C  0.64927183  0.72677604  0.89445946    -0.11400
C2797       C  0.67196368  0.73786900  0.90093923    -0.25400
C2798       C  0.70542158  0.74749336  0.89745795     0.37100
C2799       C  0.70100250  0.73671287  0.87095147     0.06700
F2800       F  0.63661159  0.71522376  0.87851106    -0.19200
H2801       H  0.62375558  0.71901845  0.89693551     0.16500
F2802       F  0.72876363  0.75815917  0.90338822    -0.22900
H2803       H  0.74054345  0.75416361  0.88515439     0.18300
C2804       C  0.67825457  0.74845770  0.86487115     0.26300
C2805       C  0.68890577  0.75115426  0.85526255    -0.11400
C2806       C  0.72236681  0.74209062  0.85152830    -0.25400
C2807       C  0.74493221  0.73009792  0.85766714     0.37200
C2808       C  0.73437281  0.72761250  0.86733683    -0.27100
F2809       F  0.64644662  0.75785239  0.86833153    -0.19200
H2810       H  0.67079828  0.76039763  0.85074889     0.16500
F2811       F  0.77722862  0.72088819  0.85439528    -0.22900
H2812       H  0.75236614  0.71871452  0.87204438     0.18300
C2813       C  0.14608781  0.72765841  0.98785953    -0.26900
C2814       C  0.12947801  0.74426090  0.99238239     0.06700
C2815       C  0.11715081  0.76024540  0.98665312     0.26300
C2816       C  0.12090164  0.75949033  0.97660854    -0.11400
C2817       C  0.13738321  0.74288745  0.97201009    -0.25400
C2818       C  0.15029262  0.72696865  0.97778068     0.37100
C2819       C  0.12556745  0.74514126  0.00306175     0.06700
F2820       F  0.10061047  0.77644582  0.99076527    -0.19200
H2821       H  0.11070750  0.77200699  0.97241321     0.16500
F2822       F  0.16629535  0.71058865  0.97371329    -0.22900
H2823       H  0.15610954  0.71525792  0.99216266     0.18300
C2824       C  0.10516723  0.73049133  0.00819490     0.26300
C2825       C  0.10079882  0.73197875  0.01824935    -0.11400
C2826       C  0.11714979  0.74794159  0.02338691    -0.25400
C2827       C  0.13779492  0.76250746  0.01818879     0.37200
C2828       C  0.14171791  0.76109891  0.00816229    -0.27100
F2829       F  0.08879245  0.71497851  0.00346159    -0.19200
H2830       H  0.08498040  0.72049400  0.02202849     0.16500
F2831       F  0.15399331  0.77829043  0.02274825    -0.22900
H2832       H  0.15767445  0.77249852  0.00435131     0.18300
C2833       C  0.15131768  0.85109726  0.94388336    -0.26900
C2834       C  0.16871981  0.86065313  0.93600768     0.06700
C2835       C  0.17677828  0.84979598  0.92759919     0.26300
C2836       C  0.16905999  0.82946117  0.92722832    -0.11400
C2837       C  0.15248704  0.81963858  0.93517145    -0.25400
C2838       C  0.14278995  0.83077053  0.94345415     0.37100
C2839       C  0.18014228  0.88172716  0.93663825     0.06700
F2840       F  0.19342437  0.85876606  0.91987099    -0.19200
H2841       H  0.17655337  0.82131348  0.92074454     0.16500
F2842       F  0.12680878  0.82188779  0.95129189    -0.22900
H2843       H  0.14483303  0.85935128  0.95040446     0.18300
C2844       C  0.16054743  0.89615165  0.93126065     0.26300
C2845       C  0.17363319  0.91576634  0.93121938    -0.11400
C2846       C  0.20668050  0.92141884  0.93651024    -0.25400
C2847       C  0.22590456  0.90688557  0.94202347     0.37200
C2848       C  0.21258111  0.88723586  0.94208330    -0.27100
F2849       F  0.12881342  0.89122527  0.92602481    -0.19200
H2850       H  0.15778494  0.92653276  0.92698563     0.16500
F2851       F  0.25777358  0.91151184  0.94725668    -0.22900
H2852       H  0.22811928  0.87617224  0.94620840     0.18300
C2853       C  0.84917599  0.72792679  0.92983325    -0.26900
C2854       C  0.87184488  0.73076334  0.93811332     0.06700
C2855       C  0.85379816  0.73071954  0.94725197     0.26300
C2856       C  0.81358714  0.72864057  0.94798387    -0.11400
C2857       C  0.79105575  0.72675356  0.93962218    -0.25400
C2858       C  0.80929761  0.72590419  0.93056196     0.37100
C2859       C  0.91384210  0.73452436  0.93700012     0.06700
F2860       F  0.87488961  0.73309935  0.95543139    -0.19200
H2861       H  0.79990993  0.72966811  0.95500509     0.16500
F2862       F  0.78818956  0.72404675  0.92234248    -0.22900
H2863       H  0.86217146  0.72813879  0.92271511     0.18300
C2864       C  0.93629837  0.72257757  0.93084904     0.26300
C2865       C  0.97537747  0.72668510  0.92947617    -0.11400
C2866       C  0.99324660  0.74260932  0.93428993    -0.25400
C2867       C  0.97071400  0.75470692  0.94039250     0.37200
C2868       C  0.93136192  0.75071880  0.94167148    -0.27100
F2869       F  0.92074973  0.70652121  0.92637250    -0.19200
H2870       H  0.99196757  0.71688217  0.92486503     0.16500
F2871       F  0.98657124  0.77035253  0.94513419    -0.22900
H2872       H  0.91445611  0.76042258  0.94625924     0.18300
C2873       C  0.35130642  0.74548143  0.92697420    -0.26900
C2874       C  0.37235930  0.73769385  0.93473508     0.06700
C2875       C  0.35228269  0.72866442  0.94241622     0.26300
C2876       C  0.31178167  0.72792804  0.94237906    -0.11400
C2877       C  0.29069592  0.73637641  0.93474551    -0.25400
C2878       C  0.31105788  0.74485885  0.92694110     0.37100
C2879       C  0.41505525  0.73971214  0.93480635     0.06700
F2880       F  0.37181907  0.72052695  0.94992872    -0.19200
H2881       H  0.29691266  0.72123806  0.94844261     0.16500
F2882       F  0.29214377  0.75266009  0.91923999    -0.22900
H2883       H  0.36610379  0.75253131  0.92099405     0.18300
C2884       C  0.43716553  0.73370565  0.92680263     0.26300
C2885       C  0.47717305  0.73643797  0.92675453    -0.11400
C2886       C  0.49611409  0.74531149  0.93464725    -0.25400
C2887       C  0.47384896  0.75145852  0.94263809     0.37200
C2888       C  0.43377457  0.74862651  0.94269162    -0.27100
F2889       F  0.42017993  0.72475426  0.91910906    -0.19200
H2890       H  0.49343281  0.73134771  0.92054454     0.16500
F2891       F  0.49077178  0.75964176  0.95053483    -0.22900
H2892       H  0.41723297  0.75357622  0.94888216     0.18300
C2893       C  0.18540130  0.75799461  0.88232163    -0.26900
C2894       C  0.18151893  0.74026019  0.87708330     0.06700
C2895       C  0.16612508  0.72346955  0.88178499     0.26300
C2896       C  0.15508558  0.72455257  0.89153008    -0.11400
C2897       C  0.15979465  0.74224011  0.89680014    -0.25400
C2898       C  0.17481255  0.75901775  0.89204937     0.37100
C2899       C  0.19376203  0.73968653  0.86676969     0.06700
F2900       F  0.16326021  0.70582552  0.87709785    -0.19200
H2901       H  0.14418729  0.71133440  0.89505779     0.16500
F2902       F  0.17906042  0.77652071  0.89679269    -0.22900
H2903       H  0.19666419  0.77118604  0.87884421     0.18300
C2904       C  0.16886136  0.73259300  0.85952789     0.26300
C2905       C  0.17987884  0.73339709  0.84980799    -0.11400
C2906       C  0.21567276  0.74153497  0.84705194    -0.25400
C2907       C  0.24080555  0.74840429  0.85430208     0.37200
C2908       C  0.22991065  0.74743035  0.86404485    -0.27100
F2909       F  0.13311621  0.72575350  0.86178208    -0.19200
H2910       H  0.15977934  0.72814254  0.84438998     0.16500
F2911       F  0.27605079  0.75583553  0.85200822    -0.22900
H2912       H  0.24970337  0.75285460  0.86949314     0.18300
C2913       C  0.90358273  0.39021132  0.80336035    -0.26900
C2914       C  0.91705020  0.38141767  0.81194625     0.06700
C2915       C  0.92149717  0.39341487  0.82019537     0.26300
C2916       C  0.91440203  0.41380513  0.81971260    -0.11400
C2917       C  0.90201790  0.42270483  0.81106839    -0.25400
C2918       C  0.89580307  0.41061762  0.80292647     0.37100
C2919       C  0.92778595  0.35999886  0.81217717     0.06700
F2920       F  0.93258307  0.38543342  0.82875732    -0.19200
H2921       H  0.91884440  0.42271091  0.82613486     0.16500
F2922       F  0.88415787  0.41862858  0.79442140    -0.22900
H2923       H  0.90024804  0.38138681  0.79687570     0.18300
C2924       C  0.90348487  0.34542714  0.80817923     0.26300
C2925       C  0.91436548  0.32542874  0.80829835    -0.11400
C2926       C  0.94949899  0.31939223  0.81249004    -0.25400
C2927       C  0.97371017  0.33397644  0.81654875     0.37200
C2928       C  0.96300874  0.35401933  0.81631790    -0.27100
F2929       F  0.86870323  0.35041690  0.80437762    -0.19200
H2930       H  0.89481794  0.31459186  0.80522148     0.16500
F2931       F  0.00800537  0.32899434  0.82061385    -0.22900
H2932       H  0.98261067  0.36494879  0.81929220     0.18300
C2933       C  0.86317104  0.60975289  0.80783148    -0.26900
C2934       C  0.82875364  0.61374897  0.81287453     0.06700
C2935       C  0.81105049  0.59841098  0.81807603     0.26300
C2936       C  0.82706136  0.57940000  0.81809692    -0.11400
C2937       C  0.86097590  0.57506696  0.81285328    -0.25400
C2938       C  0.87910557  0.59057305  0.80775406     0.37100
C2939       C  0.81195824  0.63401629  0.81299374     0.06700
F2940       F  0.77850402  0.60189055  0.82327517    -0.19200
H2941       H  0.81222601  0.56792363  0.82212460     0.16500
F2942       F  0.91205426  0.58727048  0.80270198    -0.22900
H2943       H  0.87744495  0.62148371  0.80384885     0.18300
C2944       C  0.83336785  0.64995731  0.81668124     0.26300
C2945       C  0.81710755  0.66888358  0.81716809    -0.11400
C2946       C  0.77921319  0.67250874  0.81389342    -0.25400
C2947       C  0.75777946  0.65653762  0.81011754     0.37200
C2948       C  0.77399421  0.63742731  0.80976301    -0.27100
F2949       F  0.86974958  0.64712415  0.82005239    -0.19200
H2950       H  0.83457343  0.68082813  0.82006206     0.16500
F2951       F  0.72110047  0.65926595  0.80695083    -0.22900
H2952       H  0.75697455  0.62525388  0.80692952     0.18300
C2953       C  0.40412814  0.39112128  0.80950690    -0.26900
C2954       C  0.44043591  0.38508441  0.81293694     0.06700
C2955       C  0.46683393  0.39943987  0.81611846     0.26300
C2956       C  0.45664413  0.41947932  0.81607598    -0.11400
C2957       C  0.42012061  0.42562687  0.81275687    -0.25400
C2958       C  0.39404722  0.41123458  0.80934101     0.37100
C2959       C  0.44981381  0.36375486  0.81366393     0.06700
F2960       F  0.50192452  0.39401515  0.81959283    -0.19200
H2961       H  0.47745249  0.43022856  0.81868405     0.16500
F2962       F  0.35847326  0.41648233  0.80613674    -0.22900
H2963       H  0.38345423  0.38017820  0.80702661     0.18300
C2964       C  0.42680881  0.35125605  0.81934723     0.26300
C2965       C  0.43536502  0.33110003  0.82003377    -0.11400
C2966       C  0.46691436  0.32287583  0.81501278    -0.25400
C2967       C  0.49034419  0.33552755  0.80940317     0.37200
C2968       C  0.48187471  0.35582703  0.80879914    -0.27100
F2969       F  0.39625795  0.35861578  0.82434180    -0.19200
H2970       H  0.41676038  0.32188041  0.82443416     0.16500
F2971       F  0.52102056  0.32834445  0.80440357    -0.22900
H2972       H  0.49995818  0.36533468  0.80440405     0.18300
C2973       C  0.60172196  0.51504694  0.80463251    -0.26900
C2974       C  0.62125985  0.50324665  0.81140719     0.06700
C2975       C  0.60047271  0.49392430  0.81879322     0.26300
C2976       C  0.56075988  0.49630076  0.81940338    -0.11400
C2977       C  0.54065974  0.50793643  0.81262910    -0.25400
C2978       C  0.56158416  0.51748075  0.80523817     0.37100
C2979       C  0.66355568  0.50137619  0.81122907     0.06700
F2980       F  0.61861651  0.48220381  0.82535031    -0.19200
H2981       H  0.54568008  0.48870157  0.82517046     0.16500
F2982       F  0.54338855  0.52875629  0.79851912    -0.22900
H2983       H  0.61761543  0.52248585  0.79895268     0.18300
C2984       C  0.68285747  0.49248799  0.80343198     0.26300
C2985       C  0.72294799  0.48997617  0.80376256    -0.11400
C2986       C  0.74419736  0.49638882  0.81185425    -0.25400
C2987       C  0.72438813  0.50516556  0.81966794     0.37200
C2988       C  0.68457026  0.50760053  0.81931024    -0.27100
F2989       F  0.66289185  0.48591336  0.79562333    -0.19200
H2990       H  0.73738511  0.48328660  0.79763077     0.16500
F2991       F  0.74329554  0.51151600  0.82768451    -0.22900
H2992       H  0.66994594  0.51438876  0.82539459     0.18300
C2993       C  0.09912813  0.48251863  0.80865494    -0.26900
C2994       C  0.12156065  0.49978058  0.80818781     0.06700
C2995       C  0.10310540  0.51820074  0.80678619     0.26300
C2996       C  0.06269651  0.51930745  0.80639612    -0.11400
C2997       C  0.04024990  0.50208744  0.80743520    -0.25400
C2998       C  0.05899499  0.48358821  0.80828397     0.37100
C2999       C  0.16388501  0.49829498  0.80958781     0.06700
F3000       F  0.12411592  0.53510258  0.80586628    -0.19200
H3001       H  0.04898699  0.53365816  0.80563939     0.16500
F3002       F  0.03851135  0.46644480  0.80888926    -0.22900
H3003       H  0.11268325  0.46818247  0.80964246     0.18300
C3004       C  0.18259005  0.50990482  0.81659840     0.26300
C3005       C  0.22226341  0.50799465  0.81807344    -0.11400
C3006       C  0.24424969  0.49443499  0.81263072    -0.25400
C3007       C  0.22523386  0.48234270  0.80581545     0.37200
C3008       C  0.18545670  0.48429837  0.80434082    -0.27100
F3009       F  0.16239080  0.52280380  0.82218734    -0.19200
H3010       H  0.23585430  0.51745360  0.82341670     0.16500
F3011       F  0.24493520  0.46875560  0.80051001    -0.22900
H3012       H  0.17145904  0.47496782  0.79900706     0.18300
C3013       C  0.35804780  0.60875346  0.80825355    -0.26900
C3014       C  0.33073383  0.61500646  0.81510549     0.06700
C3015       C  0.31965046  0.60195787  0.82249681     0.26300
C3016       C  0.33493465  0.58280473  0.82284463    -0.11400
C3017       C  0.36151352  0.57626348  0.81582693    -0.25400
C3018       C  0.37342753  0.58961348  0.80859203     0.37100
C3019       C  0.31362330  0.63503743  0.81435589     0.06700
F3020       F  0.29414194  0.60774130  0.82939352    -0.19200
H3021       H  0.32532063  0.57295803  0.82853817     0.16500
F3022       F  0.39872122  0.58403547  0.80161163    -0.22900
H3023       H  0.36673566  0.61857112  0.80245365     0.18300
C3024       C  0.33753012  0.65171333  0.81331921     0.26300
C3025       C  0.32138902  0.67043245  0.81202435    -0.11400
C3026       C  0.28113909  0.67298540  0.81188374    -0.25400
C3027       C  0.25706918  0.65641318  0.81315873     0.37200
C3028       C  0.27329925  0.63753728  0.81432228    -0.27100
F3029       F  0.37653966  0.64994783  0.81371604    -0.19200
H3030       H  0.34052891  0.68306191  0.81127510     0.16500
F3031       F  0.21808111  0.65836047  0.81297252    -0.22900
H3032       H  0.25440049  0.62480775  0.81501135     0.18300
C3033       C  0.95760730  0.51232947  0.98899203    -0.26900
C3034       C  0.99042707  0.50440381  0.99356197     0.06700
C3035       C  0.01938938  0.49572064  0.98783522     0.26300
C3036       C  0.01546383  0.49495713  0.97778817    -0.11400
C3037       C  0.98280306  0.50295932  0.97318397    -0.25400
C3038       C  0.95388348  0.51179342  0.97889982     0.37100
C3039       C  0.99352552  0.50436816  0.00428920     0.06700
F3040       F  0.05096623  0.48737130  0.99197106    -0.19200
H3041       H  0.03824524  0.48810485  0.97358174     0.16500
F3042       F  0.92156929  0.51939574  0.97477877    -0.22900
H3043       H  0.93480120  0.51897791  0.99326605     0.18300
C3044       C  0.02647228  0.51182531  0.00901754     0.26300
C3045       C  0.02951448  0.51086574  0.01911097    -0.11400
C3046       C  0.99990402  0.50237486  0.02470773    -0.25400
C3047       C  0.96660125  0.49526266  0.01994151     0.37200
C3048       C  0.96354735  0.49633976  0.00987173    -0.27100
F3049       F  0.05549519  0.52031771  0.00388807    -0.19200
H3050       H  0.05525601  0.51665270  0.02254179     0.16500
F3051       F  0.93663103  0.48744008  0.02498449    -0.22900
H3052       H  0.93787677  0.49056021  0.00639804     0.18300
C3053       C  0.92439038  0.39315900  0.92955657    -0.26900
C3054       C  0.93696933  0.38154902  0.93735297     0.06700
C3055       C  0.95828097  0.39069224  0.94479952     0.26300
C3056       C  0.96666876  0.41098572  0.94440553    -0.11400
C3057       C  0.95365951  0.42265803  0.93666054    -0.25400
C3058       C  0.93235414  0.41346947  0.92920715     0.37100
C3059       C  0.92889691  0.35987500  0.93749778     0.06700
F3060       F  0.97023090  0.38013239  0.95258967    -0.19200
H3061       H  0.98278398  0.41763807  0.95028238     0.16500
F3062       F  0.91950842  0.42398448  0.92148988    -0.22900
H3063       H  0.90874928  0.38643085  0.92362124     0.18300
C3064       C  0.89201217  0.35229673  0.93525197     0.26300
C3065       C  0.88542016  0.33177595  0.93517476    -0.11400
C3066       C  0.91521015  0.31849360  0.93750284    -0.25400
C3067       C  0.95199646  0.32610717  0.93976764     0.37200
C3068       C  0.95870937  0.34652093  0.93967468    -0.27100
F3069       F  0.86211623  0.36470703  0.93334750    -0.19200
H3070       H  0.85684179  0.32628332  0.93346574     0.16500
F3071       F  0.98194145  0.31380750  0.94180260    -0.22900
H3072       H  0.98756683  0.35188328  0.94116907     0.18300
C3073       C  0.03315997  0.60424191  0.94232459    -0.26900
C3074       C  0.06124331  0.60886692  0.93536475     0.06700
C3075       C  0.07037559  0.59480739  0.92825285     0.26300
C3076       C  0.05159813  0.57648968  0.92807698    -0.11400
C3077       C  0.02314300  0.57170212  0.93497691    -0.25400
C3078       C  0.01407129  0.58585955  0.94213502     0.37100
C3079       C  0.07926463  0.62877808  0.93509885     0.06700
F3080       F  0.09778771  0.59876213  0.92150836    -0.19200
H3081       H  0.05966484  0.56596951  0.92251027     0.16500
F3082       F  0.98717047  0.58194095  0.94899938    -0.22900
H3083       H  0.02559355  0.61502720  0.94781554     0.18300
C3084       C  0.07292437  0.64116725  0.92712941     0.26300
C3085       C  0.08932615  0.66004972  0.92681561    -0.11400
C3086       C  0.11250748  0.66712329  0.93444038    -0.25400
C3087       C  0.11955967  0.65448339  0.94236340     0.37200
C3088       C  0.10279746  0.63550043  0.94268966    -0.27100
F3089       F  0.04977452  0.63520844  0.91976210    -0.19200
H3090       H  0.08309836  0.66931914  0.92062065     0.16500
F3091       F  0.14156158  0.66060636  0.94990710    -0.22900
H3092       H  0.10810262  0.62603732  0.94886988     0.18300
C3093       C  0.97185435  0.50786110  0.88181644    -0.26900
C3094       C  0.93509277  0.50163830  0.87876386     0.06700
C3095       C  0.90827868  0.49517039  0.88567095     0.26300
C3096       C  0.91845963  0.49452392  0.89542190    -0.11400
C3097       C  0.95550412  0.50040094  0.89852414    -0.25400
C3098       C  0.98198636  0.50742151  0.89160689     0.37100
C3099       C  0.92600054  0.50065609  0.86832746     0.06700
F3100       F  0.87277233  0.48869826  0.88296058    -0.19200
H3101       H  0.89721850  0.48923795  0.90055031     0.16500
F3102       F  0.01787468  0.51343834  0.89422892    -0.22900
H3103       H  0.99286625  0.51291912  0.87657370     0.18300
C3104       C  0.89364320  0.51035020  0.86441946     0.26300
C3105       C  0.88623238  0.50936801  0.85448429    -0.11400
C3106       C  0.91077861  0.49861563  0.84828584    -0.25400
C3107       C  0.94258801  0.48850318  0.85231755     0.37200
C3108       C  0.95010176  0.48968161  0.86220281    -0.27100
F3109       F  0.86986766  0.52121279  0.87015202    -0.19200
H3110       H  0.86149393  0.51725432  0.85163361     0.16500
F3111       F  0.96675009  0.47751618  0.84674923    -0.22900
H3112       H  0.97482371  0.48186542  0.86511723     0.18300
C3113       C  0.47245537  0.49248229  0.01120355    -0.26900
C3114       C  0.49095710  0.50753963  0.00600638     0.06700
C3115       C  0.51139606  0.52234883  0.01097900     0.26300
C3116       C  0.51418409  0.52164442  0.02105481    -0.11400
C3117       C  0.49627214  0.50628620  0.02629623    -0.25400
C3118       C  0.47486123  0.49182074  0.02123648     0.37100
C3119       C  0.48992581  0.50697785  0.99538104     0.06700
F3120       F  0.52967839  0.53704862  0.00607731    -0.19200
H3121       H  0.53060844  0.53304397  0.02474186     0.16500
F3122       F  0.45680330  0.47674312  0.02591114    -0.22900
H3123       H  0.45634825  0.48105534  0.00744133     0.18300
C3124       C  0.50459411  0.49041347  0.99045899     0.26300
C3125       C  0.50174409  0.48920375  0.98043953    -0.11400
C3126       C  0.48396296  0.50443271  0.97513078    -0.25400
C3127       C  0.46959352  0.52119547  0.98009892     0.37200
C3128       C  0.47277494  0.52242583  0.99015268    -0.27100
F3129       F  0.52189293  0.47542345  0.99536836    -0.19200
H3130       H  0.51326280  0.47621152  0.97685226     0.16500
F3131       F  0.45262688  0.53643021  0.97529534    -0.22900
H3132       H  0.46121145  0.53524634  0.99388365     0.18300
C3133       C  0.44457632  0.39167571  0.93084653    -0.26900
C3134       C  0.45710540  0.38006769  0.93863624     0.06700
C3135       C  0.47934151  0.38912866  0.94595050     0.26300
C3136       C  0.48676772  0.40960554  0.94569261    -0.11400
C3137       C  0.47213149  0.42140505  0.93817060    -0.25400
C3138       C  0.45179412  0.41204168  0.93059361     0.37100
C3139       C  0.44607840  0.35872098  0.93910272     0.06700
F3140       F  0.49224408  0.37842562  0.95359600    -0.19200
H3141       H  0.50254732  0.41635081  0.95160054     0.16500
F3142       F  0.43820488  0.42257301  0.92296060    -0.22900
H3143       H  0.42861482  0.38497211  0.92495581     0.18300
C3144       C  0.40773815  0.35262503  0.93733544     0.26300
C3145       C  0.39777259  0.33247873  0.93758128    -0.11400
C3146       C  0.42559554  0.31803586  0.93975350    -0.25400
C3147       C  0.46391932  0.32415041  0.94154176     0.37200
C3148       C  0.47394132  0.34423702  0.94116706    -0.27100
F3149       F  0.37962756  0.36618287  0.93559215    -0.19200
H3150       H  0.36812873  0.32820455  0.93623031     0.16500
F3151       F  0.49211289  0.31068204  0.94338784    -0.22900
H3152       H  0.50373617  0.34844216  0.94234779     0.18300
C3153       C  0.76835802  0.49889412  0.92891159    -0.26900
C3154       C  0.74766779  0.50928688  0.93597384     0.06700
C3155       C  0.76813502  0.52048227  0.94288911     0.26300
C3156       C  0.80871409  0.52071848  0.94283816    -0.11400
C3157       C  0.82938900  0.50965404  0.93595215    -0.25400
C3158       C  0.80854091  0.49907296  0.92884122     0.37100
C3159       C  0.70498080  0.50732007  0.93622546     0.06700
F3160       F  0.74892127  0.53112777  0.94968430    -0.19200
H3161       H  0.82390600  0.52906148  0.94834080     0.16500
F3162       F  0.82685466  0.48860230  0.92181618    -0.22900
H3163       H  0.75330922  0.49007925  0.92355336     0.18300
C3164       C  0.68293752  0.51004287  0.92779853     0.26300
C3165       C  0.64329451  0.50618587  0.92783280    -0.11400
C3166       C  0.62462469  0.49948027  0.93624800    -0.25400
C3167       C  0.64668121  0.49706935  0.94473536     0.37200
C3168       C  0.68641150  0.50094934  0.94468614    -0.27100
F3169       F  0.69972515  0.51658288  0.91952802    -0.19200
H3170       H  0.62716913  0.50852778  0.92122916     0.16500
F3171       F  0.62994162  0.49125971  0.95313539    -0.22900
H3172       H  0.70289064  0.49854621  0.95123020     0.18300
C3173       C  0.27027812  0.47838534  0.94272720    -0.26900
C3174       C  0.24716239  0.49523189  0.94143425     0.06700
C3175       C  0.26454241  0.51414908  0.94171789     0.26300
C3176       C  0.30471961  0.51597891  0.94250994    -0.11400
C3177       C  0.32801390  0.49899145  0.94304667    -0.25400
C3178       C  0.31023615  0.48018434  0.94354756     0.37100
C3179       C  0.20534821  0.49277336  0.93945467     0.06700
F3180       F  0.24274415  0.53082667  0.94107050    -0.19200
H3181       H  0.31768666  0.53059513  0.94221948     0.16500
F3182       F  0.33160653  0.46341335  0.94453655    -0.22900
H3183       H  0.25753082  0.46370052  0.94269704     0.18300
C3184       C  0.18799422  0.50222191  0.93151498     0.26300
C3185       C  0.14842724  0.50015391  0.92982989    -0.11400
C3186       C  0.12532058  0.48850924  0.93597044    -0.25400
C3187       C  0.14325080  0.47808566  0.94358247     0.37200
C3188       C  0.18281074  0.48027861  0.94528854    -0.27100
F3189       F  0.20933913  0.51335297  0.92532955    -0.19200
H3190       H  0.13572275  0.50819389  0.92385288     0.16500
F3191       F  0.12256263  0.46616571  0.94955588    -0.22900
H3192       H  0.19573591  0.47252873  0.95132992     0.18300
C3193       C  0.51974048  0.60513677  0.94417502    -0.26900
C3194       C  0.55004772  0.60931834  0.93772843     0.06700
C3195       C  0.56023234  0.59506227  0.93078703     0.26300
C3196       C  0.54026988  0.57717371  0.93022620    -0.11400
C3197       C  0.51014512  0.57269442  0.93670627    -0.25400
C3198       C  0.49987947  0.58698248  0.94369592     0.37100
C3199       C  0.57026948  0.62872236  0.93796852     0.06700
F3200       F  0.59041880  0.59815100  0.92470925    -0.19200
H3201       H  0.54948600  0.56651523  0.92483732     0.16500
F3202       F  0.47136428  0.58332987  0.95017785    -0.22900
H3203       H  0.51135332  0.61599312  0.94955605     0.18300
C3204       C  0.57376487  0.63995660  0.92947431     0.26300
C3205       C  0.59253630  0.65821197  0.92961020    -0.11400
C3206       C  0.60791043  0.66596485  0.93822029    -0.25400
C3207       C  0.60503251  0.65461935  0.94673819     0.37200
C3208       C  0.58620090  0.63615187  0.94659026    -0.27100
F3209       F  0.55761539  0.63366390  0.92107716    -0.19200
H3210       H  0.59407082  0.66658361  0.92294314     0.16500
F3211       F  0.61882195  0.66167183  0.95525109    -0.22900
H3212       H  0.58387304  0.62767759  0.95321137     0.18300
C3213       C  0.39809098  0.49164419  0.88874702    -0.26900
C3214       C  0.42359836  0.50014332  0.88208264     0.06700
C3215       C  0.45825584  0.50860015  0.88534217     0.26300
C3216       C  0.46779663  0.50802300  0.89512213    -0.11400
C3217       C  0.44301223  0.49892698  0.90182906    -0.25400
C3218       C  0.40764299  0.49093522  0.89854942     0.37100
C3219       C  0.41515532  0.49922780  0.87166946     0.06700
F3220       F  0.48295356  0.51735747  0.87903351    -0.19200
H3221       H  0.49491213  0.51448033  0.89741014     0.16500
F3222       F  0.38233142  0.48230830  0.90474919    -0.22900
H3223       H  0.37124311  0.48509793  0.88631184     0.18300
C3224       C  0.44022778  0.48898006  0.86548629     0.26300
C3225       C  0.43350246  0.48878434  0.85557554    -0.11400
C3226       C  0.40166054  0.49884736  0.85160044    -0.25400
C3227       C  0.37593300  0.50874135  0.85786768     0.37200
C3228       C  0.38263867  0.50879092  0.86784262    -0.27100
F3229       F  0.47125370  0.47910564  0.86905953    -0.19200
H3230       H  0.45370653  0.48089401  0.85100184     0.16500
F3231       F  0.34478158  0.51864047  0.85439577    -0.22900
H3232       H  0.36298672  0.51668350  0.87256843     0.18300
C3233       C  0.72531490  0.73507289  0.76166186    -0.26900
C3234       C  0.75013652  0.74856334  0.75706630     0.06700
C3235       C  0.77206092  0.76171209  0.76269987     0.26300
C3236       C  0.76951625  0.76118998  0.77275706    -0.11400
C3237       C  0.74511054  0.74752693  0.77744295    -0.25400
C3238       C  0.72289556  0.73442154  0.77175708     0.37100
C3239       C  0.75254759  0.74920640  0.74640000     0.06700
F3240       F  0.79535783  0.77537770  0.75846269    -0.19200
H3241       H  0.78689188  0.77153853  0.77687501     0.16500
F3242       F  0.69883757  0.72099026  0.77589750    -0.22900
H3243       H  0.70807592  0.72488468  0.75741061     0.18300
C3244       C  0.78813470  0.74686861  0.74164777     0.26300
C3245       C  0.79024519  0.74827218  0.73158200    -0.11400
C3246       C  0.75704120  0.75229218  0.72609538    -0.25400
C3247       C  0.72131690  0.75431869  0.73087115     0.37200
C3248       C  0.71918158  0.75264991  0.74092374    -0.27100
F3249       F  0.82077339  0.74305661  0.74674277    -0.19200
H3250       H  0.81801803  0.74651456  0.72808429     0.16500
F3251       F  0.68832395  0.75758784  0.72583025    -0.22900
H3252       H  0.69149576  0.75440084  0.74446961     0.18300
C3253       C  0.28297247  0.73601360  0.75748007    -0.26900
C3254       C  0.26086821  0.74963985  0.75223258     0.06700
C3255       C  0.23559665  0.76241175  0.75711564     0.26300
C3256       C  0.23240895  0.76150635  0.76716532    -0.11400
C3257       C  0.25448614  0.74787375  0.77252516    -0.25400
C3258       C  0.28002253  0.73511860  0.76754974     0.37100
C3259       C  0.26302165  0.75004682  0.74161958     0.06700
F3260       F  0.21382575  0.77565361  0.75213248    -0.19200
H3261       H  0.21267772  0.77158150  0.77075279     0.16500
F3262       F  0.30188033  0.72164438  0.77235721    -0.22900
H3263       H  0.30241333  0.72599660  0.75375121     0.18300
C3264       C  0.28800600  0.76316991  0.73685841     0.26300
C3265       C  0.28805294  0.76418623  0.72676013    -0.11400
C3266       C  0.26321897  0.75207647  0.72126429    -0.25400
C3267       C  0.23872607  0.73863159  0.72614342     0.37200
C3268       C  0.23871013  0.73772770  0.73622205    -0.27100
F3269       F  0.31203692  0.77509543  0.74199062    -0.19200
H3270       H  0.30743432  0.77453566  0.72325110     0.16500
F3271       F  0.21424920  0.72654174  0.72123798    -0.22900
H3272       H  0.21928138  0.72755726  0.73984838     0.18300
C3273       C  0.47151985  0.77075084  0.69283090    -0.26900
C3274       C  0.49192077  0.76249374  0.68498471     0.06700
C3275       C  0.47117717  0.75647585  0.67676246     0.26300
C3276       C  0.43105155  0.75800526  0.67657702    -0.11400
C3277       C  0.41058952  0.76578786  0.68450067    -0.25400
C3278       C  0.43128050  0.77264648  0.69255752     0.37100
C3279       C  0.53460960  0.76023678  0.68540110     0.06700
F3280       F  0.48958951  0.74918491  0.66886229    -0.19200
H3281       H  0.41582302  0.75277348  0.67023021     0.16500
F3282       F  0.41260311  0.78015053  0.70036592    -0.22900
H3283       H  0.48661953  0.77525585  0.69931698     0.18300
C3284       C  0.55780534  0.77565903  0.68901328     0.26300
C3285       C  0.59773618  0.77346148  0.68944533    -0.11400
C3286       C  0.61575476  0.75605325  0.68612064    -0.25400
C3287       C  0.59284263  0.74067571  0.68236662     0.37200
C3288       C  0.55257781  0.74268056  0.68214163    -0.27100
F3289       F  0.54209582  0.79315282  0.69187851    -0.19200
H3290       H  0.61473779  0.78568065  0.69223874     0.16500
F3291       F  0.60915585  0.72358362  0.67915859    -0.22900
H3292       H  0.53541757  0.73039200  0.67950146     0.18300
C3293       C  0.05761012  0.74890764  0.69272742    -0.26900
C3294       C  0.03508553  0.75116542  0.68438092     0.06700
C3295       C  0.05334050  0.75143313  0.67529657     0.26300
C3296       C  0.09355809  0.74992943  0.67466236    -0.11400
C3297       C  0.11599636  0.74779254  0.68304777    -0.25400
C3298       C  0.09757101  0.74709790  0.69209584     0.37100
C3299       C  0.99282292  0.75373549  0.68535642     0.06700
F3300       F  0.03234577  0.75301042  0.66705553    -0.19200
H3301       H  0.10720130  0.75052567  0.66762812     0.16500
F3302       F  0.11828491  0.74582510  0.70039744    -0.22900
H3303       H  0.04429203  0.74908639  0.69980537     0.18300
C3304       C  0.97140304  0.74098223  0.69132492     0.26300
C3305       C  0.93204004  0.74412096  0.69270337    -0.11400
C3306       C  0.91286640  0.75988340  0.68807694    -0.25400
C3307       C  0.93431978  0.77258882  0.68202331     0.37200
C3308       C  0.97395708  0.76954240  0.68073275    -0.27100
F3309       F  0.98836803  0.72516653  0.69566715    -0.19200
H3310       H  0.91643022  0.73384305  0.69727299     0.16500
F3311       F  0.91713020  0.78778701  0.67725005    -0.22900
H3312       H  0.99003551  0.77969486  0.67619730     0.18300
C3313       C  0.83067274  0.77288210  0.61644773    -0.26900
C3314       C  0.81214032  0.75702592  0.62116454     0.06700
C3315       C  0.80392401  0.73968107  0.61587147     0.26300
C3316       C  0.81367870  0.73839625  0.60609479    -0.11400
C3317       C  0.83242515  0.75417841  0.60140664    -0.25400
C3318       C  0.84100935  0.77146201  0.60669315     0.37100
C3319       C  0.80175035  0.75855665  0.63157689     0.06700
F3320       F  0.78723719  0.72375671  0.62018671    -0.19200
H3321       H  0.80683116  0.72490679  0.60219107     0.16500
F3322       F  0.85800959  0.78727756  0.60235885    -0.22900
H3323       H  0.83665887  0.78654768  0.62028504     0.18300
C3324       C  0.82847316  0.76580892  0.63837339     0.26300
C3325       C  0.81883359  0.76663538  0.64816889    -0.11400
C3326       C  0.78268031  0.75994230  0.65145184    -0.25400
C3327       C  0.75574975  0.75291383  0.64466803     0.37200
C3328       C  0.76513402  0.75242118  0.63482854    -0.27100
F3329       F  0.86452170  0.77135011  0.63562410    -0.19200
H3330       H  0.84026382  0.77194618  0.65324610     0.16500
F3331       F  0.72020857  0.74677497  0.64751446    -0.22900
H3332       H  0.74369308  0.74721829  0.62973476     0.18300
C3333       C  0.56113238  0.75678195  0.55342650    -0.26900
C3334       C  0.58172999  0.75077751  0.56160732     0.06700
C3335       C  0.56114940  0.74346472  0.56965551     0.26300
C3336       C  0.52069137  0.74222934  0.56943037    -0.11400
C3337       C  0.50006460  0.74844358  0.56123562    -0.25400
C3338       C  0.52098002  0.75567654  0.55319783     0.37100
C3339       C  0.62457137  0.75202208  0.56150585     0.06700
F3340       F  0.57999022  0.73812780  0.57784618    -0.19200
H3341       H  0.50549123  0.73688314  0.57575057     0.16500
F3342       F  0.50281446  0.76171571  0.54502337    -0.22900
H3343       H  0.57627372  0.76222238  0.54711283     0.18300
C3344       C  0.64708706  0.73556736  0.56409811     0.26300
C3345       C  0.68724449  0.73675421  0.56382681    -0.11400
C3346       C  0.70612895  0.75425052  0.56086384    -0.25400
C3347       C  0.68369595  0.77054367  0.55794810     0.37200
C3348       C  0.64326514  0.76941506  0.55830967    -0.27100
F3349       F  0.63034273  0.71811294  0.56663698    -0.19200
H3350       H  0.70368989  0.72378247  0.56593698     0.16500
F3351       F  0.70067350  0.78768367  0.55504513    -0.22900
H3352       H  0.62645883  0.78224757  0.55618661     0.18300
C3353       C  0.06641171  0.74175455  0.55909872    -0.26900
C3354       C  0.08167745  0.76020932  0.56196466     0.06700
C3355       C  0.05697288  0.77419260  0.56626659     0.26300
C3356       C  0.01817199  0.76960191  0.56782252    -0.11400
C3357       C  0.00272315  0.75122687  0.56488581    -0.25400
C3358       C  0.02728413  0.73732548  0.56045597     0.37100
C3359       C  0.12335150  0.76451949  0.56051471     0.06700
F3360       F  0.06984083  0.79261991  0.56859784    -0.19200
H3361       H  0.99977772  0.78087049  0.57098460     0.16500
F3362       F  0.01361034  0.71948818  0.55744557    -0.22900
H3363       H  0.08490999  0.73068330  0.55581555     0.18300
C3364       C  0.14620556  0.77211613  0.56808089     0.26300
C3365       C  0.18611209  0.77401705  0.56693234    -0.11400
C3366       C  0.20410727  0.76794850  0.55834005    -0.25400
C3367       C  0.18112803  0.76134066  0.55060101     0.37200
C3368       C  0.14112797  0.75975639  0.55168597    -0.27100
F3369       F  0.13056261  0.77625456  0.57684259    -0.19200
H3370       H  0.20324418  0.77891696  0.57303183     0.16500
F3371       F  0.19742562  0.75587132  0.54208535    -0.22900
H3372       H  0.12408639  0.75422510  0.54570082     0.18300
C3373       C  0.31028155  0.77537339  0.61109919    -0.26900
C3374       C  0.31290519  0.75758485  0.61631532     0.06700
C3375       C  0.32583095  0.74034726  0.61158618     0.26300
C3376       C  0.33624827  0.74099232  0.60184088    -0.11400
C3377       C  0.33351234  0.75874961  0.59656794    -0.25400
C3378       C  0.32048240  0.77602348  0.60132173     0.37100
C3379       C  0.30271263  0.75711695  0.62670670     0.06700
F3380       F  0.32726923  0.72272585  0.61631999    -0.19200
H3381       H  0.34546010  0.72740452  0.59835001     0.16500
F3382       F  0.31786504  0.79358828  0.59657161    -0.22900
H3383       H  0.30064196  0.78883332  0.61463921     0.18300
C3384       C  0.32914651  0.74979573  0.63350520     0.26300
C3385       C  0.31934689  0.74904940  0.64326535    -0.11400
C3386       C  0.28314602  0.75578792  0.64651842    -0.25400
C3387       C  0.25677497  0.76337210  0.63971754     0.37200
C3388       C  0.26660434  0.76402810  0.62989567    -0.27100
F3389       F  0.36492761  0.74384211  0.63074122    -0.19200
H3390       H  0.34058455  0.74346165  0.64831652     0.16500
F3391       F  0.22140332  0.76986610  0.64250591    -0.22900
H3392       H  0.24584960  0.76972174  0.62474812     0.18300
C3393       C  0.61859783  0.01547358  0.73743664    -0.26900
C3394       C  0.60900754  0.99852941  0.74276120     0.06700
C3395       C  0.59490215  0.98169522  0.73791364     0.26300
C3396       C  0.59130384  0.98173885  0.72781911    -0.11400
C3397       C  0.60214125  0.99850668  0.72240707    -0.25400
C3398       C  0.61544686  0.01551855  0.72737661     0.37100
C3399       C  0.61424942  0.99863735  0.75336287     0.06700
F3400       F  0.58455467  0.96526771  0.74295342    -0.19200
H3401       H  0.58083781  0.96850895  0.72422897     0.16500
F3402       F  0.62548611  0.03228377  0.72255161    -0.22900
H3403       H  0.62920354  0.02861482  0.74108812     0.18300
C3404       C  0.64421616  0.98780336  0.75768871     0.26300
C3405       C  0.65005529  0.98876672  0.76770007    -0.11400
C3406       C  0.62603011  0.00052427  0.77358524    -0.25400
C3407       C  0.59586582  0.01133969  0.76915179     0.37200
C3408       C  0.59035618  0.01044544  0.75915077    -0.27100
F3409       F  0.66837287  0.97667644  0.75218498    -0.19200
H3410       H  0.67349511  0.98031922  0.77083728     0.16500
F3411       F  0.57152213  0.02282466  0.77442817    -0.22900
H3412       H  0.56727994  0.01899121  0.75589561     0.18300
C3413       C  0.72444835  0.86358455  0.67946032    -0.26900
C3414       C  0.69863097  0.87077514  0.68649901     0.06700
C3415       C  0.69269702  0.85944067  0.69489777     0.26300
C3416       C  0.71070134  0.84101855  0.69598953    -0.11400
C3417       C  0.73538753  0.83344464  0.68880002    -0.25400
C3418       C  0.74294544  0.84523317  0.68061355     0.37100
C3419       C  0.67818540  0.89005397  0.68511626     0.06700
F3420       F  0.66949994  0.86616168  0.70209443    -0.19200
H3421       H  0.70451383  0.83243593  0.70241830     0.16500
F3422       F  0.76660466  0.83866343  0.67347865    -0.22900
H3423       H  0.72947659  0.87190833  0.67289293     0.18300
C3424       C  0.69830363  0.90693925  0.68191892     0.26300
C3425       C  0.67940384  0.92515016  0.68109217    -0.11400
C3426       C  0.64018805  0.92717493  0.68357768    -0.25400
C3427       C  0.61968658  0.91026951  0.68656038     0.37200
C3428       C  0.63848386  0.89186060  0.68722101    -0.27100
F3429       F  0.73673737  0.90614596  0.68003894    -0.19200
H3430       H  0.69609243  0.93795483  0.67886064     0.16500
F3431       F  0.58157570  0.91148060  0.68874763    -0.22900
H3432       H  0.62199950  0.87899565  0.68944607     0.18300
C3433       C  0.09734385  0.98961934  0.76200311    -0.26900
C3434       C  0.11435918  0.00526628  0.75686543     0.06700
C3435       C  0.13450477  0.02007428  0.76192114     0.26300
C3436       C  0.13836211  0.01888911  0.77194773    -0.11400
C3437       C  0.12207685  0.00297687  0.77711585    -0.25400
C3438       C  0.10107243  0.98840347  0.77201489     0.37100
C3439       C  0.11238039  0.00547654  0.74621341     0.06700
F3440       F  0.15161477  0.03529716  0.75713645    -0.19200
H3441       H  0.15443415  0.03039364  0.77565026     0.16500
F3442       F  0.08448225  0.97279804  0.77662183    -0.22900
H3443       H  0.08131067  0.97819614  0.75822156     0.18300
C3444       C  0.12416559  0.98875744  0.74091550     0.26300
C3445       C  0.12241643  0.98889117  0.73086891    -0.11400
C3446       C  0.10849706  0.00557866  0.72590767    -0.25400
C3447       C  0.09674937  0.02237359  0.73119137     0.37200
C3448       C  0.09886577  0.02230515  0.74128319    -0.27100
F3449       F  0.13799579  0.97238104  0.74545259    -0.19200
H3450       H  0.13153413  0.97577266  0.72696246     0.16500
F3451       F  0.08400117  0.03893824  0.72662082    -0.22900
H3452       H  0.08962178  0.03530543  0.74526126     0.18300
C3453       C  0.89063856  0.01096210  0.69421620    -0.26900
C3454       C  0.87018800  0.99569443  0.68960780     0.06700
C3455       C  0.89052465  0.97901529  0.68620112     0.26300
C3456       C  0.93071126  0.97804523  0.68716038    -0.11400
C3457       C  0.95129340  0.99359889  0.69157944    -0.25400
C3458       C  0.93054639  0.00992850  0.69529208     0.37100
C3459       C  0.82795231  0.99778353  0.68819679     0.06700
F3460       F  0.87162641  0.96367167  0.68194983    -0.19200
H3461       H  0.94576965  0.96528341  0.68425742     0.16500
F3462       F  0.94871841  0.02538581  0.69964818    -0.22900
H3463       H  0.87578194  0.02410107  0.69676686     0.18300
C3464       C  0.80428290  0.00430821  0.69581380     0.26300
C3465       C  0.76500821  0.00750611  0.69430867    -0.11400
C3466       C  0.74812328  0.00390965  0.68524427    -0.25400
C3467       C  0.77171127  0.99711663  0.67762875     0.37200
C3468       C  0.81129123  0.99427628  0.67910022    -0.27100
F3469       F  0.81890837  0.00711616  0.70480945    -0.19200
H3470       H  0.74756917  0.01225077  0.70038127     0.16500
F3471       F  0.75671132  0.99320142  0.66877178    -0.22900
H3472       H  0.82903378  0.98955119  0.67307980     0.18300
C3473       C  0.39242825  0.00217417  0.67686518    -0.26900
C3474       C  0.37083252  0.99668692  0.68498979     0.06700
C3475       C  0.39012497  0.98842577  0.69302115     0.26300
C3476       C  0.43036304  0.98627225  0.69295994    -0.11400
C3477       C  0.45196684  0.99253085  0.68496043    -0.25400
C3478       C  0.43249202  0.00020928  0.67683369     0.37100
C3479       C  0.32821374  0.99905490  0.68489958     0.06700
F3480       F  0.37028838  0.98320362  0.70108538    -0.19200
H3481       H  0.44474247  0.98058366  0.69932691     0.16500
F3482       F  0.45225709  0.00598088  0.66883948    -0.22900
H3483       H  0.37822607  0.00799736  0.67050220     0.18300
C3484       C  0.31042944  0.01686067  0.68186760     0.26300
C3485       C  0.27002862  0.01861642  0.68187118    -0.11400
C3486       C  0.24698289  0.00277223  0.68501920    -0.25400
C3487       C  0.26491533  0.98488864  0.68781672     0.37200
C3488       C  0.30492782  0.98309533  0.68770647    -0.27100
F3489       F  0.33207248  0.03274632  0.67921530    -0.19200
H3490       H  0.25685910  0.03250374  0.67972030     0.16500
F3491       F  0.24366384  0.96891270  0.69056226    -0.22900
H3492       H  0.31777177  0.96907192  0.68977370     0.18300
C3493       C  0.19735862  0.85587069  0.69565469    -0.26900
C3494       C  0.18405792  0.86614141  0.68745114     0.06700
C3495       C  0.19065271  0.85772594  0.67827770     0.26300
C3496       C  0.20880881  0.83923072  0.67741016    -0.11400
C3497       C  0.22182804  0.82893214  0.68561499    -0.25400
C3498       C  0.21620272  0.83755323  0.69477106     0.37100
C3499       C  0.16519757  0.88596432  0.68853573     0.06700
F3500       F  0.18061446  0.86759419  0.67011484    -0.19200
H3501       H  0.21291802  0.83297140  0.67027413     0.16500
F3502       F  0.22731988  0.82789600  0.70290891    -0.22900
H3503       H  0.19268271  0.86193433  0.70280808     0.18300
C3504       C  0.13146911  0.89111737  0.68340317     0.26300
C3505       C  0.11592305  0.91031475  0.68412694    -0.11400
C3506       C  0.13322812  0.92469119  0.69009487    -0.25400
C3507       C  0.16585150  0.91911745  0.69559450     0.37200
C3508       C  0.18155868  0.90009931  0.69475705    -0.27100
F3509       F  0.11319688  0.87757152  0.67776567    -0.19200
H3510       H  0.09062940  0.91398228  0.67990876     0.16500
F3511       F  0.18352793  0.93213823  0.70163936    -0.22900
H3512       H  0.20733850  0.89659527  0.69882540     0.18300
C3513       C  0.45445796  0.89391435  0.56756965    -0.26900
C3514       C  0.44799908  0.88572594  0.55839474     0.06700
C3515       C  0.46217031  0.89568944  0.55019274     0.26300
C3516       C  0.48167091  0.91373510  0.55118682    -0.11400
C3517       C  0.48666764  0.92235262  0.56033654    -0.25400
C3518       C  0.47354616  0.91204918  0.56856160     0.37100
C3519       C  0.42695473  0.86668498  0.55750002     0.06700
F3520       F  0.45531462  0.88855368  0.54118265    -0.19200
H3521       H  0.49068128  0.92156387  0.54473808     0.16500
F3522       F  0.47825296  0.91974151  0.57755385    -0.22900
H3523       H  0.44435985  0.88631393  0.57398370     0.18300
C3524       C  0.44298727  0.85096461  0.55221370     0.26300
C3525       C  0.42435960  0.83267987  0.55186722    -0.11400
C3526       C  0.38966963  0.82941430  0.55693270    -0.25400
C3527       C  0.37301366  0.84531355  0.56205122     0.37200
C3528       C  0.39160113  0.86379060  0.56231028    -0.27100
F3529       F  0.47786354  0.85288176  0.54783714    -0.19200
H3530       H  0.43829500  0.82075666  0.54793928     0.16500
F3531       F  0.33929591  0.84297902  0.56691588    -0.22900
H3532       H  0.37865437  0.87581295  0.56638184     0.18300
C3533       C  0.57879675  0.00546271  0.61092185    -0.26900
C3534       C  0.55084574  0.00016701  0.61775248     0.06700
C3535       C  0.51402337  0.99419956  0.61463159     0.26300
C3536       C  0.50555041  0.99345070  0.60476220    -0.11400
C3537       C  0.53343356  0.99898165  0.59790122    -0.25400
C3538       C  0.57027879  0.00498807  0.60109002     0.37100
C3539       C  0.56042938  0.00118251  0.62811009     0.06700
F3540       F  0.48654178  0.98884394  0.62111794    -0.19200
H3541       H  0.47700236  0.98879504  0.60248868     0.16500
F3542       F  0.59838031  0.01010390  0.59472195    -0.22900
H3543       H  0.60726964  0.01017908  0.61323409     0.18300
C3544       C  0.59163684  0.99034671  0.63184239     0.26300
C3545       C  0.60111626  0.99176337  0.64162046    -0.11400
C3546       C  0.57975091  0.00407573  0.64784287    -0.25400
C3547       C  0.54867047  0.01512735  0.64400963     0.37200
C3548       C  0.53915469  0.01357355  0.63424060    -0.27100
F3549       F  0.61236757  0.97803988  0.62606219    -0.19200
H3550       H  0.62491261  0.98297243  0.64433785     0.16500
F3551       F  0.52712023  0.02731643  0.64966224    -0.22900
H3552       H  0.51530343  0.02221006  0.63142100     0.18300
C3553       C  0.79634086  0.99219459  0.56917380    -0.26900
C3554       C  0.77990142  0.00048233  0.56086223     0.06700
C3555       C  0.80335243  0.01098999  0.55437695     0.26300
C3556       C  0.84293074  0.01285463  0.55611283    -0.11400
C3557       C  0.85980016  0.00434677  0.56437772    -0.25400
C3558       C  0.83587533  0.99413487  0.57097088     0.37100
C3559       C  0.73782457  0.99932306  0.55935834     0.06700
F3560       F  0.78802763  0.01908906  0.54626486    -0.19200
H3561       H  0.86050314  0.02057460  0.55084592     0.16500
F3562       F  0.85052839  0.98594061  0.57913987    -0.22900
H3563       H  0.77837747  0.98439090  0.57433301     0.18300
C3564       C  0.71923335  0.98110153  0.55765761     0.26300
C3565       C  0.67890015  0.98030973  0.55684431    -0.11400
C3566       C  0.65671372  0.99763264  0.55792225    -0.25400
C3567       C  0.67577100  0.01590976  0.55939082     0.37200
C3568       C  0.71588860  0.01667978  0.56003862    -0.27100
F3569       F  0.74006904  0.96412147  0.55687637    -0.19200
H3570       H  0.66497945  0.96610179  0.55574828     0.16500
F3571       F  0.65565475  0.03309881  0.56031967    -0.22900
H3572       H  0.72986919  0.03080949  0.56134623     0.18300
C3573       C  0.21592723  0.97189114  0.55924546    -0.26900
C3574       C  0.23655339  0.98462924  0.56538741     0.06700
C3575       C  0.21660743  0.99663017  0.57194471     0.26300
C3576       C  0.17644024  0.99652618  0.57210267    -0.11400
C3577       C  0.15518425  0.98456345  0.56565293    -0.25400
C3578       C  0.17541451  0.97178987  0.55936300     0.37100
C3579       C  0.27868081  0.98671252  0.56454288     0.06700
F3580       F  0.23608266  0.00893705  0.57799975    -0.19200
H3581       H  0.16202294  0.00637169  0.57712661     0.16500
F3582       F  0.15629024  0.95976297  0.55312031    -0.22900
H3583       H  0.23119755  0.96252097  0.55416274     0.18300
C3584       C  0.30358181  0.97385088  0.56946359     0.26300
C3585       C  0.34342129  0.97718022  0.56925935    -0.11400
C3586       C  0.35900716  0.99334482  0.56410243    -0.25400
C3587       C  0.33372818  0.00610458  0.55911736     0.37200
C3588       C  0.29392318  0.00281624  0.55940322    -0.27100
F3589       F  0.28929531  0.95832541  0.57458711    -0.19200
H3590       H  0.36210011  0.96698012  0.57308800     0.16500
F3591       F  0.34726612  0.02193929  0.55409794    -0.22900
H3592       H  0.27480731  0.01299122  0.55569046     0.18300
C3593       C  0.95896177  0.89105924  0.55616446    -0.26900
C3594       C  0.93270532  0.88504073  0.56335020     0.06700
C3595       C  0.92417107  0.89822624  0.57092301     0.26300
C3596       C  0.94173927  0.91680204  0.57136292    -0.11400
C3597       C  0.96803507  0.92299995  0.56422215    -0.25400
C3598       C  0.97645246  0.90988173  0.55655661     0.37100
C3599       C  0.91544549  0.86480545  0.56330822     0.06700
F3600       F  0.89807587  0.89332959  0.57784432    -0.19200
H3601       H  0.93411713  0.92648838  0.57730905     0.16500
F3602       F  0.00102222  0.91525523  0.54938296    -0.22900
H3603       H  0.96628153  0.88109179  0.55030590     0.18300
C3604       C  0.89745661  0.85674990  0.55506041     0.26300
C3605       C  0.88100070  0.83768701  0.55537826    -0.11400
C3606       C  0.88243699  0.82633363  0.56389731    -0.25400
C3607       C  0.89994856  0.83464729  0.57215867     0.37200
C3608       C  0.91639490  0.85350311  0.57180931    -0.27100
F3609       F  0.89548274  0.86733094  0.54673895    -0.19200
H3610       H  0.86813193  0.83160595  0.54889540     0.16500
F3611       F  0.90162809  0.82450340  0.58062095    -0.22900
H3612       H  0.93040762  0.85921921  0.57822438     0.18300
C3613       C  0.04474379  0.01291182  0.61718793    -0.26900
C3614       C  0.03478759  0.99626737  0.62271172     0.06700
C3615       C  0.01383010  0.98074535  0.61836647     0.26300
C3616       C  0.00484923  0.98154990  0.60850466    -0.11400
C3617       C  0.01671810  0.99779220  0.60287119    -0.25400
C3618       C  0.03588993  0.01372808  0.60738456     0.37100
C3619       C  0.04717240  0.99527766  0.63292579     0.06700
F3620       F  0.00372787  0.96443247  0.62353183    -0.19200
H3621       H  0.99007084  0.96910129  0.60519430     0.16500
F3622       F  0.04643649  0.03008867  0.60230872    -0.22900
H3623       H  0.05991380  0.02526628  0.62047271     0.18300
C3624       C  0.08603533  0.99860488  0.63543809     0.26300
C3625       C  0.09724954  0.99897466  0.64513358    -0.11400
C3626       C  0.07005738  0.99566577  0.65245257    -0.25400
C3627       C  0.03127264  0.99205681  0.64993798     0.37200
C3628       C  0.02000184  0.99190938  0.64024860    -0.27100
F3629       F  0.11322372  0.00127420  0.62849528    -0.19200
H3630       H  0.12723720  0.00162504  0.64692422     0.16500
F3631       F  0.00395286  0.98950559  0.65686421    -0.22900
H3632       H  0.98987781  0.98964916  0.63846923     0.18300
C3633       C  0.57895140  0.14054229  0.55610867    -0.26900
C3634       C  0.54450524  0.13488154  0.56071610     0.06700
C3635       C  0.52356811  0.14906367  0.56595760     0.26300
C3636       C  0.53696495  0.16848119  0.56662800    -0.11400
C3637       C  0.57147752  0.17432178  0.56206229    -0.25400
C3638       C  0.59242639  0.16011114  0.55674926     0.37100
C3639       C  0.53129285  0.11403321  0.56047146     0.06700
F3640       F  0.48973684  0.14420958  0.57031566    -0.19200
H3641       H  0.51979231  0.17904314  0.57068001     0.16500
F3642       F  0.62596929  0.16498743  0.55227447    -0.22900
H3643       H  0.59577001  0.12968963  0.55214269     0.18300
C3644       C  0.52701469  0.10375778  0.55168626     0.26300
C3645       C  0.51600388  0.08377776  0.55169260    -0.11400
C3646       C  0.50987858  0.07380479  0.56044441    -0.25400
C3647       C  0.51308226  0.08420281  0.56919195     0.37200
C3648       C  0.52348901  0.10417633  0.56918503    -0.27100
F3649       F  0.53398227  0.11295454  0.54314295    -0.19200
H3650       H  0.51426894  0.07581030  0.54489567     0.16500
F3651       F  0.50714938  0.07484681  0.57774899    -0.22900
H3652       H  0.52677816  0.11181067  0.57603579     0.18300
C3653       C  0.08038720  0.14578832  0.57464763    -0.26900
C3654       C  0.06925860  0.13599492  0.56609895     0.06700
C3655       C  0.06860994  0.14684287  0.55742508     0.26300
C3656       C  0.07783625  0.16705596  0.55736442    -0.11400
C3657       C  0.08839065  0.17697534  0.56591003    -0.25400
C3658       C  0.08996675  0.16605367  0.57457552     0.37100
C3659       C  0.05793801  0.11461837  0.56622604     0.06700
F3660       F  0.05949053  0.13784128  0.54895177    -0.19200
H3661       H  0.07660714  0.17501140  0.55057950     0.16500
F3662       F  0.09898226  0.17510327  0.58304365    -0.22900
H3663       H  0.08074294  0.13784538  0.58144106     0.18300
C3664       C  0.08146164  0.10029393  0.57066997     0.26300
C3665       C  0.07099526  0.08021674  0.57050520    -0.11400
C3666       C  0.03687417  0.07383878  0.56589434    -0.25400
C3667       C  0.01312371  0.08823907  0.56152924     0.37200
C3668       C  0.02358529  0.10835377  0.56172832    -0.27100
F3669       F  0.11527112  0.10559053  0.57490674    -0.19200
H3670       H  0.09009381  0.06959581  0.57390188     0.16500
F3671       F  0.97968344  0.08299410  0.55710598    -0.22900
H3672       H  0.00465001  0.11911375  0.55837901     0.18300
C3673       C  0.80973536  0.23841534  0.55570406    -0.26900
C3674       C  0.83089189  0.24498321  0.56375130     0.06700
C3675       C  0.81134252  0.24862217  0.57248105     0.26300
C3676       C  0.77128146  0.24661656  0.57298381    -0.11400
C3677       C  0.74992230  0.24067892  0.56485126    -0.25400
C3678       C  0.76970460  0.23610493  0.55624013     0.37100
C3679       C  0.87307499  0.24839662  0.56295551     0.06700
F3680       F  0.83094190  0.25414290  0.58053766    -0.19200
H3681       H  0.75686416  0.25005347  0.57972356     0.16500
F3682       F  0.75031519  0.23047226  0.54816950    -0.22900
H3683       H  0.82405274  0.23568688  0.54887681     0.18300
C3684       C  0.89719510  0.23417214  0.55863806     0.26300
C3685       C  0.93694718  0.23731034  0.55818711    -0.11400
C3686       C  0.95370114  0.25455075  0.56212737    -0.25400
C3687       C  0.92944922  0.26902555  0.56623756     0.37200
C3688       C  0.88953149  0.26598193  0.56657156    -0.27100
F3689       F  0.88263437  0.21681797  0.55522802    -0.19200
H3690       H  0.95476723  0.22579396  0.55503759     0.16500
F3691       F  0.94415739  0.28602249  0.57000589    -0.22900
H3692       H  0.87141216  0.27737918  0.56971458     0.18300
C3693       C  0.30949721  0.27155882  0.56339776    -0.26900
C3694       C  0.33157241  0.25490360  0.56577200     0.06700
C3695       C  0.31296168  0.23760170  0.56907549     0.26300
C3696       C  0.27262959  0.23697779  0.56979287    -0.11400
C3697       C  0.25045460  0.25357255  0.56720956    -0.25400
C3698       C  0.26943340  0.27100772  0.56412899     0.37100
C3699       C  0.37405376  0.25616422  0.56519174     0.06700
F3700       F  0.33372369  0.22117760  0.57134837    -0.19200
H3701       H  0.25872844  0.22338985  0.57210953     0.16500
F3702       F  0.24934047  0.28768838  0.56189778    -0.22900
H3703       H  0.32342096  0.28514308  0.56107159     0.18300
C3704       C  0.39271702  0.26177964  0.55657401     0.26300
C3705       C  0.43302704  0.26335727  0.55625796    -0.11400
C3706       C  0.45507783  0.25925282  0.56451353    -0.25400
C3707       C  0.43612841  0.25412288  0.57317667     0.37200
C3708       C  0.39605603  0.25258918  0.57347805    -0.27100
F3709       F  0.37204211  0.26505262  0.54840182    -0.19200
H3710       H  0.44703848  0.26699353  0.54949378     0.16500
F3711       F  0.45640829  0.25051913  0.58138472    -0.22900
H3712       H  0.38210300  0.24870224  0.58021983     0.18300
C3713       C  0.50266663  0.26767699  0.76407125    -0.26900
C3714       C  0.49331108  0.25155928  0.75809290     0.06700
C3715       C  0.48168781  0.23358307  0.76243006     0.26300
C3716       C  0.47894202  0.23202078  0.77251326    -0.11400
C3717       C  0.48843273  0.24817322  0.77848912    -0.25400
C3718       C  0.50039531  0.26607289  0.77412072     0.37100
C3719       C  0.49624216  0.25367462  0.74739675     0.06700
F3720       F  0.47421422  0.21731451  0.75695214    -0.19200
H3721       H  0.47013138  0.21800718  0.77565586     0.16500
F3722       F  0.50928292  0.28225100  0.77953342    -0.22900
H3723       H  0.51144456  0.28170557  0.76093530     0.18300
C3724       C  0.46612690  0.24739875  0.74130174     0.26300
C3725       C  0.46980703  0.24892232  0.73126703    -0.11400
C3726       C  0.50313781  0.25715275  0.72705822    -0.25400
C3727       C  0.53260082  0.26422922  0.73315374     0.37200
C3728       C  0.52920040  0.26237821  0.74320838    -0.27100
F3729       F  0.43270388  0.24019909  0.74503432    -0.19200
H3730       H  0.44632257  0.24373560  0.72676659     0.16500
F3731       F  0.56528968  0.27225639  0.72941605    -0.22900
H3732       H  0.55271397  0.26743665  0.74773110     0.18300
C3733       C  0.58410161  0.15200283  0.69061392    -0.26900
C3734       C  0.55455787  0.13863310  0.69290715     0.06700
C3735       C  0.51803642  0.14595743  0.69555078     0.26300
C3736       C  0.51098839  0.16640850  0.69553714    -0.11400
C3737       C  0.54014856  0.17979165  0.69280826    -0.25400
C3738       C  0.57710466  0.17236147  0.69052811     0.37100
C3739       C  0.56190307  0.11713596  0.69196904     0.06700
F3740       F  0.48921318  0.13333817  0.69808601    -0.19200
H3741       H  0.48244553  0.17172403  0.69740777     0.16500
F3742       F  0.60657291  0.18470834  0.68813655    -0.22900
H3743       H  0.61243202  0.14660653  0.68858936     0.18300
C3744       C  0.53949131  0.10554321  0.68568780     0.26300
C3745       C  0.54840677  0.08557339  0.68424650    -0.11400
C3746       C  0.57983712  0.07671323  0.68903512    -0.25400
C3747       C  0.60218248  0.08839339  0.69537721     0.37200
C3748       C  0.59330898  0.10844092  0.69676454    -0.27100
F3749       F  0.50979938  0.11370311  0.68067413    -0.19200
H3750       H  0.53059725  0.07706220  0.67932720     0.16500
F3751       F  0.63252733  0.08055161  0.70025631    -0.22900
H3752       H  0.61103004  0.11724701  0.70158532     0.18300
C3753       C  0.58698276  0.24288687  0.63932265    -0.26900
C3754       C  0.56068151  0.24994611  0.63243748     0.06700
C3755       C  0.52478706  0.25732026  0.63560453     0.26300
C3756       C  0.51567469  0.25768464  0.64545646    -0.11400
C3757       C  0.54193732  0.25058458  0.65236910    -0.25400
C3758       C  0.57787145  0.24314869  0.64916800     0.37100
C3759       C  0.57030853  0.24911427  0.62197226     0.06700
F3760       F  0.49876587  0.26455545  0.62918203    -0.19200
H3761       H  0.48792086  0.26355389  0.64767295     0.16500
F3762       F  0.60462000  0.23638383  0.65552847    -0.22900
H3763       H  0.61460222  0.23692415  0.63705697     0.18300
C3764       C  0.60532507  0.25675583  0.61836002     0.26300
C3765       C  0.61322010  0.25623450  0.60841459    -0.11400
C3766       C  0.58658384  0.24790607  0.60190048    -0.25400
C3767       C  0.55186167  0.23994515  0.60560980     0.37200
C3768       C  0.54403540  0.24057086  0.61549566    -0.27100
F3769       F  0.63140094  0.26524277  0.62440354    -0.19200
H3770       H  0.64009732  0.26246673  0.60580904     0.16500
F3771       F  0.52478769  0.23189060  0.59969818    -0.22900
H3772       H  0.51718803  0.23430453  0.61811212     0.18300
C3773       C  0.01318253  0.22901431  0.73986803    -0.26900
C3774       C  0.99555828  0.24412897  0.74528926     0.06700
C3775       C  0.98466104  0.26182181  0.74069309     0.26300
C3776       C  0.99026841  0.26410282  0.73080358    -0.11400
C3777       C  0.00737990  0.24894563  0.72531251    -0.25400
C3778       C  0.01915560  0.23135412  0.72994733     0.37100
C3779       C  0.99050865  0.24194197  0.75581723     0.06700
F3780       F  0.96964892  0.27717461  0.74581593    -0.19200
H3781       H  0.98146218  0.27789599  0.72745031     0.16500
F3782       F  0.03552146  0.21625826  0.72489804    -0.22900
H3783       H  0.02205181  0.21533250  0.74332180     0.18300
C3784       C  0.95488727  0.24607185  0.76026456     0.26300
C3785       C  0.95180310  0.24604441  0.77032433    -0.11400
C3786       C  0.98396411  0.24154187  0.77608539    -0.25400
C3787       C  0.01918699  0.23656461  0.77157376     0.37200
C3788       C  0.02228099  0.23681172  0.76154041    -0.27100
F3789       F  0.92311488  0.25010805  0.75487565    -0.19200
H3790       H  0.92423212  0.24953425  0.77360680     0.16500
F3791       F  0.05116339  0.23219997  0.77682734    -0.22900
H3792       H  0.04997176  0.23364124  0.75823808     0.18300
C3793       C  0.02466047  0.14781734  0.67733204    -0.26900
C3794       C  0.04503870  0.13874156  0.68493046     0.06700
C3795       C  0.05677669  0.15042924  0.69280493     0.26300
C3796       C  0.04801915  0.17060640  0.69312937    -0.11400
C3797       C  0.02746997  0.17984594  0.68560806    -0.25400
C3798       C  0.01572351  0.16819182  0.67766482     0.37100
C3799       C  0.05381429  0.11712214  0.68484497     0.06700
F3800       F  0.07761965  0.14240874  0.70013109    -0.19200
H3801       H  0.05774061  0.17907365  0.69932379     0.16500
F3802       F  0.99656102  0.17650054  0.67013803    -0.22900
H3803       H  0.01542194  0.13907777  0.67118130     0.18300
C3804       C  0.04335697  0.10526241  0.69276367     0.26300
C3805       C  0.05418851  0.08534392  0.69313937    -0.11400
C3806       C  0.07551006  0.07653256  0.68560823    -0.25400
C3807       C  0.08524330  0.08828444  0.67753551     0.37200
C3808       C  0.07436062  0.10839355  0.67717418    -0.27100
F3809       F  0.02228618  0.11292611  0.70015044    -0.19200
H3810       H  0.04569010  0.07678859  0.69940801     0.16500
F3811       F  0.10479867  0.08037800  0.66996143    -0.22900
H3812       H  0.08262025  0.11726238  0.67098999     0.18300
C3813       C  0.80173200  0.24642658  0.68557352    -0.26900
C3814       C  0.78585665  0.26436484  0.68897417     0.06700
C3815       C  0.81072443  0.27980157  0.69170871     0.26300
C3816       C  0.85061736  0.27724310  0.69110546    -0.11400
C3817       C  0.86659431  0.25933057  0.68769856    -0.25400
C3818       C  0.84174474  0.24393271  0.68486946     0.37100
C3819       C  0.74340855  0.26692208  0.68941607     0.06700
F3820       F  0.79649067  0.29752308  0.69472899    -0.19200
H3821       H  0.86914101  0.28943884  0.69324898     0.16500
F3822       F  0.85602308  0.22631314  0.68173733    -0.22900
H3823       H  0.78302748  0.23423549  0.68353382     0.18300
C3824       C  0.72077972  0.26211445  0.68135101     0.26300
C3825       C  0.68074309  0.26283509  0.68194301    -0.11400
C3826       C  0.66219208  0.26845280  0.69055183    -0.25400
C3827       C  0.68464930  0.27439226  0.69849521     0.37200
C3828       C  0.72509548  0.27355331  0.69792053    -0.27100
F3829       F  0.73740080  0.25651141  0.67289528    -0.19200
H3830       H  0.66404588  0.25848711  0.67566798     0.16500
F3831       F  0.66767370  0.27976278  0.70693828    -0.22900
H3832       H  0.74207201  0.27733878  0.70422863     0.18300
C3833       C  0.30765282  0.24610512  0.69586050    -0.26900
C3834       C  0.28711573  0.25151360  0.68753006     0.06700
C3835       C  0.30748325  0.25459848  0.67886254     0.26300
C3836       C  0.34769258  0.25279996  0.67865805    -0.11400
C3837       C  0.36824504  0.24760750  0.68703692    -0.25400
C3838       C  0.34764843  0.24393612  0.69562717     0.37100
C3839       C  0.24462919  0.25399000  0.68803245     0.06700
F3840       F  0.28856442  0.25919441  0.67057654    -0.19200
H3841       H  0.36279504  0.25564953  0.67195080     0.16500
F3842       F  0.36614593  0.23917648  0.70395382    -0.22900
H3843       H  0.29278131  0.24399850  0.70266355     0.18300
C3844       C  0.22173567  0.23979174  0.69276703     0.26300
C3845       C  0.18194071  0.24232549  0.69340600    -0.11400
C3846       C  0.16374069  0.25887878  0.68921821    -0.25400
C3847       C  0.18663291  0.27315470  0.68447856     0.37200
C3848       C  0.22672533  0.27074971  0.68397211    -0.27100
F3849       F  0.23761672  0.22307616  0.69652539    -0.19200
H3850       H  0.16526345  0.23091019  0.69699794     0.16500
F3851       F  0.17046964  0.28933041  0.68027318    -0.22900
H3852       H  0.24383295  0.28207072  0.68043843     0.18300
C3853       C  0.08030832  0.23991931  0.61745401    -0.26900
C3854       C  0.06278372  0.25681837  0.62145401     0.06700
C3855       C  0.05599626  0.27342254  0.61557106     0.26300
C3856       C  0.06591037  0.27293693  0.60582525    -0.11400
C3857       C  0.08295325  0.25596373  0.60174495    -0.25400
C3858       C  0.09046253  0.23945457  0.60767883     0.37100
C3859       C  0.05198204  0.25726994  0.63177086     0.06700
F3860       F  0.03872266  0.28992333  0.61918377    -0.19200
H3861       H  0.05985145  0.28587416  0.60143046     0.16500
F3862       F  0.10635276  0.22266392  0.60399635    -0.22900
H3863       H  0.08615108  0.22706387  0.62192140     0.18300
C3864       C  0.02889374  0.24229716  0.63584869     0.26300
C3865       C  0.01867955  0.24316327  0.64561554    -0.11400
C3866       C  0.03151978  0.25889513  0.65147203    -0.25400
C3867       C  0.05439327  0.27395616  0.64729960     0.37200
C3868       C  0.06448305  0.27304916  0.63757223    -0.27100
F3869       F  0.01580316  0.22700473  0.63036292    -0.19200
H3870       H  0.00126599  0.23133232  0.64862483     0.16500
F3871       F  0.06729656  0.28958943  0.65258634    -0.22900
H3872       H  0.08251447  0.28465081  0.63456944     0.18300
C3873       C  0.87056825  0.48502495  0.73707875    -0.26900
C3874       C  0.87344047  0.50319362  0.74206549     0.06700
C3875       C  0.87338585  0.52091745  0.73667014     0.26300
C3876       C  0.87093224  0.52036434  0.72657719    -0.11400
C3877       C  0.86763127  0.50221605  0.72162883    -0.25400
C3878       C  0.86722609  0.48450310  0.72699827     0.37100
C3879       C  0.87653185  0.50347112  0.75283152     0.06700
F3880       F  0.87468802  0.53884114  0.74113948    -0.19200
H3881       H  0.87098701  0.53422141  0.72262367     0.16500
F3882       F  0.86487679  0.46662990  0.72250324    -0.22900
H3883       H  0.87143062  0.47112612  0.74098171     0.18300
C3884       C  0.85296468  0.49115868  0.75854927     0.26300
C3885       C  0.85678681  0.49104289  0.76860249    -0.11400
C3886       C  0.88377212  0.50336556  0.77328327    -0.25400
C3887       C  0.90682919  0.51602838  0.76758896     0.37200
C3888       C  0.90342756  0.51589659  0.75748866    -0.27100
F3889       F  0.82550000  0.47949370  0.75445802    -0.19200
H3890       H  0.83816021  0.48134214  0.77273539     0.16500
F3891       F  0.93308495  0.52834711  0.77171946    -0.22900
H3892       H  0.92234353  0.52533343  0.75329873     0.18300
C3893       C  0.80931575  0.60877587  0.67762073    -0.26900
C3894       C  0.80873571  0.61871468  0.68655024     0.06700
C3895       C  0.81899480  0.60811305  0.69495036     0.26300
C3896       C  0.83131716  0.58838749  0.69431857    -0.11400
C3897       C  0.83210366  0.57857958  0.68538898    -0.25400
C3898       C  0.82039453  0.58884779  0.67704320     0.37100
C3899       C  0.79851188  0.64017229  0.68698057     0.06700
F3900       F  0.81591076  0.61657314  0.70381812    -0.19200
H3901       H  0.83891343  0.58052667  0.70087157     0.16500
F3902       F  0.82031838  0.57971425  0.66829718    -0.22900
H3903       H  0.80163088  0.61652435  0.67104577     0.18300
C3904       C  0.82115789  0.65348581  0.69237290     0.26300
C3905       C  0.81203719  0.67362570  0.69261565    -0.11400
C3906       C  0.78071380  0.68125256  0.68731602    -0.25400
C3907       C  0.75831039  0.66802428  0.68177111     0.37200
C3908       C  0.76707214  0.64768535  0.68166926    -0.27100
F3909       F  0.85329386  0.64725073  0.69708515    -0.19200
H3910       H  0.83042121  0.68336854  0.69680961     0.16500
F3911       F  0.72806805  0.67464844  0.67644522    -0.22900
H3912       H  0.74923998  0.63777527  0.67741905     0.18300
C3913       C  0.98352973  0.36440484  0.67997628    -0.26900
C3914       C  0.96351514  0.37286571  0.68781260     0.06700
C3915       C  0.96100885  0.36203355  0.69647956     0.26300
C3916       C  0.97629748  0.34284558  0.69707810    -0.11400
C3917       C  0.99488698  0.33403527  0.68911314    -0.25400
C3918       C  0.99928868  0.34528531  0.68061143     0.37100
C3919       C  0.94413066  0.39254359  0.68677163     0.06700
F3920       F  0.94356812  0.36993292  0.70437781    -0.19200
H3921       H  0.97276810  0.33467072  0.70375471     0.16500
F3922       F  0.01671218  0.33743584  0.67270137    -0.22900
H3923       H  0.98567517  0.37229719  0.67318689     0.18300
C3924       C  0.96327790  0.40866495  0.68244634     0.26300
C3925       C  0.94443483  0.42686565  0.68127722    -0.11400
C3926       C  0.90628881  0.42964392  0.68452954    -0.25400
C3927       C  0.88714278  0.41357961  0.68891054     0.37200
C3928       C  0.90580239  0.39521513  0.68992544    -0.27100
F3929       F  0.00068700  0.40707028  0.67962665    -0.19200
H3930       H  0.96028784  0.43904277  0.67805665     0.16500
F3931       F  0.85028550  0.41549819  0.69209915    -0.22900
H3932       H  0.89006495  0.38297339  0.69311404     0.18300
C3933       C  0.39838016  0.52336731  0.76174270    -0.26900
C3934       C  0.38704953  0.50650111  0.75651897     0.06700
C3935       C  0.37755784  0.48904013  0.76151790     0.26300
C3936       C  0.37918336  0.48851954  0.77157028    -0.11400
C3937       C  0.39052316  0.50533286  0.77686556    -0.25400
C3938       C  0.40027537  0.52284291  0.77183498     0.37100
C3939       C  0.38477625  0.50697766  0.74586998     0.06700
F3940       F  0.36580290  0.47258314  0.75667558    -0.19200
H3941       H  0.37152532  0.47484288  0.77521366     0.16500
F3942       F  0.41098937  0.53954309  0.77662805    -0.22900
H3943       H  0.40595568  0.53693402  0.75798600     0.18300
C3944       C  0.36165492  0.52100149  0.74108839     0.26300
C3945       C  0.35678214  0.51992957  0.73107407    -0.11400
C3946       C  0.37525878  0.50503308  0.72566838    -0.25400
C3947       C  0.39958199  0.49146353  0.73047430     0.37200
C3948       C  0.40410860  0.49247434  0.74046353    -0.27100
F3949       F  0.34265956  0.53525150  0.74613395    -0.19200
H3950       H  0.33839183  0.53073165  0.72755500     0.16500
F3951       F  0.41834145  0.47686932  0.72560016    -0.22900
H3952       H  0.42241770  0.48168814  0.74403082     0.18300
C3953       C  0.33802429  0.60814168  0.67854955    -0.26900
C3954       C  0.32347743  0.61764572  0.68684160     0.06700
C3955       C  0.32019423  0.60673617  0.69545599     0.26300
C3956       C  0.33055292  0.58671011  0.69567515    -0.11400
C3957       C  0.34479093  0.57715449  0.68736440    -0.25400
C3958       C  0.34893175  0.58816681  0.67880381     0.37100
C3959       C  0.31199219  0.63887573  0.68642078     0.06700
F3960       F  0.30745795  0.61545229  0.70370678    -0.19200
H3961       H  0.32722901  0.57861799  0.70237932     0.16500
F3962       F  0.36186664  0.57948203  0.67056700    -0.22900
H3963       H  0.34023579  0.61610123  0.67178317     0.18300
C3964       C  0.33613416  0.65288600  0.68195447     0.26300
C3965       C  0.32495517  0.67270999  0.68133708    -0.11400
C3966       C  0.28971100  0.67921888  0.68527521    -0.25400
C3967       C  0.26573644  0.66527486  0.68991735     0.37200
C3968       C  0.27671339  0.64527871  0.69039224    -0.27100
F3969       F  0.37114153  0.64754823  0.67839350    -0.19200
H3970       H  0.34445432  0.68305865  0.67787741     0.16500
F3971       F  0.23168433  0.67083740  0.69394602    -0.22900
H3972       H  0.25739855  0.63474738  0.69378511     0.18300
C3973       C  0.57296947  0.51328610  0.67976491    -0.26900
C3974       C  0.59064366  0.49831965  0.68533726     0.06700
C3975       C  0.56734917  0.48564583  0.69084891     0.26300
C3976       C  0.52750660  0.48799925  0.69088049    -0.11400
C3977       C  0.50948805  0.50294981  0.68537863    -0.25400
C3978       C  0.53266187  0.51555766  0.67972684     0.37100
C3979       C  0.63318333  0.49574135  0.68540512     0.06700
F3980       F  0.58298850  0.47056620  0.69603640    -0.19200
H3981       H  0.51067388  0.47776264  0.69520212     0.16500
F3982       F  0.51662215  0.53014664  0.67429871    -0.22900
H3983       H  0.59044176  0.52335795  0.67551290     0.18300
C3984       C  0.65412213  0.49513955  0.67672059     0.26300
C3985       C  0.69419724  0.49309395  0.67689480    -0.11400
C3986       C  0.71410466  0.49128003  0.68569087    -0.25400
C3987       C  0.69324337  0.49115713  0.69436762     0.37200
C3988       C  0.65310817  0.49352698  0.69421347    -0.27100
F3989       F  0.63588944  0.49648907  0.66806759    -0.19200
H3990       H  0.70994523  0.49337573  0.67012978     0.16500
F3991       F  0.71183780  0.49014244  0.70298162    -0.22900
H3992       H  0.63766076  0.49417998  0.70101028     0.18300
C3993       C  0.06816235  0.51802461  0.69182322    -0.26900
C3994       C  0.08948857  0.50707469  0.68502778     0.06700
C3995       C  0.07010623  0.49876578  0.67706804     0.26300
C3996       C  0.03014616  0.50100255  0.67609892    -0.11400
C3997       C  0.00855502  0.51156107  0.68302874    -0.25400
C3998       C  0.02825590  0.52035549  0.69084669     0.37100
C3999       C  0.13174095  0.50433038  0.68636206     0.06700
F4000       F  0.08976730  0.48853436  0.67019639    -0.19200
H4001       H  0.01600545  0.49402626  0.67000149     0.16500
F4002       F  0.00898832  0.53064757  0.69776305    -0.22900
H4003       H  0.08231563  0.52439794  0.69807243     0.18300
C4004       C  0.15549296  0.52058472  0.68865205     0.26300
C4005       C  0.19503260  0.51790984  0.69006865    -0.11400
C4006       C  0.21205822  0.49907237  0.68906628    -0.25400
C4007       C  0.18841199  0.48277978  0.68673938     0.37200
C4008       C  0.14857853  0.48540164  0.68548959    -0.27100
F4009       F  0.14073766  0.53921849  0.68918793    -0.19200
H4010       H  0.21260995  0.53081457  0.69164224     0.16500
F4011       F  0.20364407  0.46433175  0.68576808    -0.22900
H4012       H  0.13081158  0.47258895  0.68388850     0.18300
C4013       C  0.44239166  0.35590406  0.67985150    -0.26900
C4014       C  0.44069835  0.36661171  0.68854088     0.06700
C4015       C  0.45672666  0.35816241  0.69693726     0.26300
C4016       C  0.47475786  0.33963310  0.69656584    -0.11400
C4017       C  0.47635127  0.32885046  0.68789624    -0.25400
C4018       C  0.45985260  0.33718681  0.67950827     0.37100
C4019       C  0.42344990  0.38680116  0.68875493     0.06700
F4020       F  0.45387847  0.36752468  0.70559441    -0.19200
H4021       H  0.48625967  0.33340083  0.70317363     0.16500
F4022       F  0.46066514  0.32733156  0.67095277    -0.22900
H4023       H  0.43050302  0.36214023  0.67328669     0.18300
C4024       C  0.44359161  0.40251275  0.69310058     0.26300
C4025       C  0.42760961  0.42142932  0.69339465    -0.11400
C4026       C  0.39149679  0.42548826  0.68915949    -0.25400
C4027       C  0.37150609  0.40987483  0.68460004     0.37200
C4028       C  0.38737570  0.39067665  0.68445042    -0.27100
F4029       F  0.47959000  0.39981355  0.69674627    -0.19200
H4030       H  0.44441379  0.43310402  0.69675799     0.16500
F4031       F  0.33689982  0.41309489  0.68028834    -0.22900
H4032       H  0.37144378  0.37879971  0.68099043     0.18300
C4033       C  0.79363583  0.64712505  0.57141863    -0.26900
C4034       C  0.81166181  0.63368710  0.56515740     0.06700
C4035       C  0.84053044  0.64072685  0.55884110     0.26300
C4036       C  0.85127622  0.66079024  0.55891439    -0.11400
C4037       C  0.83315117  0.67428810  0.56518304    -0.25400
C4038       C  0.80403633  0.66713560  0.57145746     0.37100
C4039       C  0.79990848  0.61246124  0.56524372     0.06700
F4040       F  0.85740504  0.62837098  0.55234686    -0.19200
H4041       H  0.87318099  0.66582870  0.55390105     0.16500
F4042       F  0.78512006  0.67941984  0.57763088    -0.22900
H4043       H  0.77143881  0.64208277  0.57635639     0.18300
C4044       C  0.82780126  0.59735058  0.56564222     0.26300
C4045       C  0.81665130  0.57746767  0.56519938    -0.11400
C4046       C  0.77748324  0.57217071  0.56467494    -0.25400
C4047       C  0.74934411  0.58715086  0.56483856     0.37200
C4048       C  0.76055080  0.60715565  0.56503426    -0.27100
F4049       F  0.86582455  0.60177931  0.56664084    -0.19200
H4050       H  0.83876618  0.56610093  0.56532371     0.16500
F4051       F  0.71127103  0.58249337  0.56436894    -0.22900
H4052       H  0.73848992  0.61853138  0.56481743     0.18300
C4053       C  0.70129109  0.39298715  0.57119189    -0.26900
C4054       C  0.68962095  0.38275132  0.56281756     0.06700
C4055       C  0.69593739  0.39173748  0.55376531     0.26300
C4056       C  0.71263152  0.41063987  0.55317695    -0.11400
C4057       C  0.72423063  0.42081001  0.56155504    -0.25400
C4058       C  0.71874165  0.41169467  0.57058536     0.37100
C4059       C  0.67137840  0.36272395  0.56358426     0.06700
F4060       F  0.68647615  0.38217009  0.54546490    -0.19200
H4061       H  0.71637479  0.41740615  0.54614251     0.16500
F4062       F  0.72817090  0.42133681  0.57887013    -0.22900
H4063       H  0.69611938  0.38668135  0.57826619     0.18300
C4064       C  0.68711943  0.34818075  0.56970483     0.26300
C4065       C  0.67072928  0.32926555  0.57019125    -0.11400
C4066       C  0.63842345  0.32413145  0.56453396    -0.25400
C4067       C  0.62208431  0.33879811  0.55854692     0.37200
C4068       C  0.63833816  0.35788065  0.55813583    -0.27100
F4069       F  0.71944487  0.35191616  0.57494201    -0.19200
H4070       H  0.68429182  0.31840867  0.57484765     0.16500
F4071       F  0.59066423  0.33474918  0.55303387    -0.22900
H4072       H  0.62505137  0.36890403  0.55352388     0.18300
C4073       C  0.80366761  0.48243765  0.61242616    -0.26900
C4074       C  0.79642185  0.49984481  0.61765412     0.06700
C4075       C  0.77557170  0.51531108  0.61325653     0.26300
C4076       C  0.76282755  0.51341243  0.60371826    -0.11400
C4077       C  0.77089947  0.49615683  0.59838009    -0.25400
C4078       C  0.79099957  0.48050722  0.60290772     0.37100
C4079       C  0.81004857  0.50145896  0.62774602     0.06700
F4080       F  0.76880065  0.53254302  0.61805294    -0.19200
H4081       H  0.74788693  0.52577263  0.60040230     0.16500
F4082       F  0.79881428  0.46335562  0.59814065    -0.22900
H4083       H  0.81912942  0.47025030  0.61575017     0.18300
C4084       C  0.78395646  0.50596580  0.63516747     0.26300
C4085       C  0.79651058  0.50670607  0.64471216    -0.11400
C4086       C  0.83526156  0.50277149  0.64711860    -0.25400
C4087       C  0.86151458  0.49828182  0.63968619     0.37200
C4088       C  0.84888870  0.49762987  0.63006924    -0.27100
F4089       F  0.74594606  0.50887799  0.63324174    -0.19200
H4090       H  0.77544127  0.50993690  0.65027600     0.16500
F4091       F  0.89926770  0.49481265  0.64167313    -0.22900
H4092       H  0.86941641  0.49415157  0.62441551     0.18300
C4093       C  0.29448520  0.60694062  0.57157829    -0.26900
C4094       C  0.29259748  0.61736873  0.56280593     0.06700
C4095       C  0.28149710  0.60699060  0.55438793     0.26300
C4096       C  0.27179687  0.58681126  0.55484511    -0.11400
C4097       C  0.27424599  0.57643115  0.56360462    -0.25400
C4098       C  0.28581486  0.58669103  0.57197649     0.37100
C4099       C  0.30269776  0.63889289  0.56254294     0.06700
F4100       F  0.28168106  0.61606719  0.54563948    -0.19200
H4101       H  0.26386110  0.57909497  0.54826990     0.16500
F4102       F  0.28835135  0.57717205  0.58059275    -0.22900
H4103       H  0.30265157  0.61451032  0.57817313     0.18300
C4104       C  0.27943930  0.65259253  0.55756697     0.26300
C4105       C  0.28950070  0.67266676  0.55728480    -0.11400
C4106       C  0.32252131  0.67978552  0.56210974    -0.25400
C4107       C  0.34512867  0.66619458  0.56737484     0.37200
C4108       C  0.33538744  0.64598890  0.56751309    -0.27100
F4109       F  0.24619771  0.64675741  0.55322067    -0.19200
H4110       H  0.27092176  0.68271593  0.55333624     0.16500
F4111       F  0.37676838  0.67229740  0.57233665    -0.22900
H4112       H  0.35370850  0.63581161  0.57146016     0.18300
C4113       C  0.46249573  0.49654959  0.57144718    -0.26900
C4114       C  0.48208467  0.49292446  0.56276001     0.06700
C4115       C  0.46079072  0.48672276  0.55460426     0.26300
C4116       C  0.42055114  0.48493557  0.55510929    -0.11400
C4117       C  0.40101968  0.48960247  0.56367953    -0.25400
C4118       C  0.42241567  0.49506835  0.57190583     0.37100
C4119       C  0.52465035  0.49530018  0.56236521     0.06700
F4120       F  0.47860151  0.48332046  0.54602733    -0.19200
H4121       H  0.40452885  0.48094229  0.54867796     0.16500
F4122       F  0.40445250  0.49921344  0.58039231    -0.22900
H4123       H  0.47825237  0.50067299  0.57789972     0.18300
C4124       C  0.54313097  0.51203640  0.56640144     0.26300
C4125       C  0.58346980  0.51351280  0.56633167    -0.11400
C4126       C  0.60596900  0.49852849  0.56210488    -0.25400
C4127       C  0.58730158  0.48193903  0.55797533     0.37200
C4128       C  0.54723127  0.48035327  0.55818805    -0.27100
F4129       F  0.52222114  0.52711104  0.57027021    -0.19200
H4130       H  0.59707254  0.52646490  0.56948571     0.16500
F4131       F  0.60772177  0.46682486  0.55397243    -0.22900
H4132       H  0.53386012  0.46713664  0.55524323     0.18300
C4133       C  0.04451577  0.49688904  0.57410857    -0.26900
C4134       C  0.02584732  0.49972468  0.56522625     0.06700
C4135       C  0.04753156  0.50603749  0.55720535     0.26300
C4136       C  0.08714964  0.50924993  0.55804768    -0.11400
C4137       C  0.10617060  0.50601493  0.56686211    -0.25400
C4138       C  0.08432907  0.49995350  0.57494762     0.37100
C4139       C  0.98357611  0.49702974  0.56436693     0.06700
F4140       F  0.03058336  0.50848286  0.54844501    -0.19200
H4141       H  0.10316890  0.51355848  0.55166598     0.16500
F4142       F  0.10134841  0.49686306  0.58364914    -0.22900
H4143       H  0.02819403  0.49241651  0.58041678     0.18300
C4144       C  0.96493375  0.47958974  0.56748114     0.26300
C4145       C  0.92490642  0.47745810  0.56631776    -0.11400
C4146       C  0.90301161  0.49263973  0.56201396    -0.25400
C4147       C  0.92200421  0.51015266  0.55903487     0.37200
C4148       C  0.96161979  0.51223591  0.56024282    -0.27100
F4149       F  0.98544440  0.46452167  0.57146985    -0.19200
H4150       H  0.91106761  0.46396241  0.56878801     0.16500
F4151       F  0.90233045  0.52569949  0.55521105    -0.22900
H4152       H  0.97523357  0.52597906  0.55801933     0.18300
C4153       C  0.21023140  0.39174661  0.56252625    -0.26900
C4154       C  0.17541010  0.38873526  0.56758650     0.06700
C4155       C  0.16047171  0.40441641  0.57313736     0.26300
C4156       C  0.17919966  0.42278453  0.57332081    -0.11400
C4157       C  0.21311951  0.42613518  0.56792328    -0.25400
C4158       C  0.22882815  0.41024267  0.56262719     0.37100
C4159       C  0.15462439  0.36940148  0.56687426     0.06700
F4160       F  0.12674646  0.40235406  0.57803229    -0.19200
H4161       H  0.16613349  0.43465505  0.57746106     0.16500
F4162       F  0.26188082  0.41254264  0.55748495    -0.22900
H4163       H  0.22295994  0.37975540  0.55840582     0.18300
C4164       C  0.14954761  0.36009831  0.55785728     0.26300
C4165       C  0.13316652  0.34117585  0.55728536    -0.11400
C4166       C  0.12060818  0.33127464  0.56563859    -0.25400
C4167       C  0.12325020  0.34104100  0.57459571     0.37200
C4168       C  0.14044300  0.35985847  0.57520219    -0.27100
F4169       F  0.16077870  0.36921513  0.54957941    -0.19200
H4170       H  0.13123018  0.33398240  0.55030458     0.16500
F4171       F  0.11199796  0.33180683  0.58284137    -0.22900
H4172       H  0.14410483  0.36659241  0.58224241     0.18300
C4173       C  0.32970845  0.51640588  0.63650270    -0.26900
C4174       C  0.31307437  0.49954596  0.63225036     0.06700
C4175       C  0.30935860  0.48209072  0.63770346     0.26300
C4176       C  0.32131175  0.48174301  0.64733968    -0.11400
C4177       C  0.33746680  0.49871999  0.65167455    -0.25400
C4178       C  0.34180483  0.51607595  0.64611631     0.37100
C4179       C  0.30113327  0.50019551  0.62201926     0.06700
F4180       F  0.29493975  0.46529055  0.63365794    -0.19200
H4181       H  0.31786529  0.46814559  0.65142379     0.16500
F4182       F  0.35641793  0.53295845  0.65002994    -0.22900
H4183       H  0.33283988  0.52998279  0.63238197     0.18300
C4184       C  0.26346875  0.49507106  0.61915619     0.26300
C4185       C  0.25304018  0.49585150  0.60939614    -0.11400
C4186       C  0.27992403  0.50189503  0.60238147    -0.25400
C4187       C  0.31757689  0.50710727  0.60532724     0.37200
C4188       C  0.32786815  0.50627859  0.61503968    -0.27100
F4189       F  0.23659582  0.48974912  0.62580644    -0.19200
H4190       H  0.22390976  0.49185418  0.60733867     0.16500
F4191       F  0.34497328  0.51252294  0.59882571    -0.22900
H4192       H  0.35705225  0.51015240  0.61711638     0.18300
C4193       C  0.02222138  0.01085875  0.49182858    -0.26900
C4194       C  0.99469895  0.00038825  0.49720708     0.06700
C4195       C  0.96368520  0.99124642  0.49243008     0.26300
C4196       C  0.96053754  0.99246205  0.48238511    -0.11400
C4197       C  0.98798400  0.00301635  0.47693187    -0.25400
C4198       C  0.01891206  0.01232336  0.48179653     0.37100
C4199       C  0.99783821  0.99961742  0.50782841     0.06700
F4200       F  0.93676311  0.98091736  0.49747927    -0.19200
H4201       H  0.93642842  0.98515481  0.47887977     0.16500
F4202       F  0.04608355  0.02281104  0.47691087    -0.22900
H4203       H  0.04609049  0.01816333  0.49544460     0.18300
C4204       C  0.02982045  0.99073250  0.51231648     0.26300
C4205       C  0.03247683  0.99030778  0.52240366    -0.11400
C4206       C  0.00366369  0.99908333  0.52814262    -0.25400
C4207       C  0.97169757  0.00801644  0.52358173     0.37200
C4208       C  0.96883379  0.00813608  0.51352585    -0.27100
F4209       F  0.05809991  0.98222058  0.50693688    -0.19200
H4210       H  0.05727195  0.98328722  0.52572853     0.16500
F4211       F  0.94269613  0.01625025  0.52882380    -0.22900
H4212       H  0.94402958  0.01506912  0.51015361     0.18300
C4213       C  0.48832002  0.98427905  0.48722158    -0.26900
C4214       C  0.48414155  0.00165611  0.49270036     0.06700
C4215       C  0.47719537  0.01974099  0.48792759     0.26300
C4216       C  0.47460002  0.02031793  0.47783917    -0.11400
C4217       C  0.47938377  0.00294988  0.47234190    -0.25400
C4218       C  0.48598179  0.98484527  0.47715917     0.37100
C4219       C  0.48792148  0.00072457  0.50335199     0.06700
F4220       F  0.47439734  0.03694731  0.49298583    -0.19200
H4221       H  0.46992787  0.03445928  0.47431125     0.16500
F4222       F  0.48978411  0.96760207  0.47216850    -0.22900
H4223       H  0.49334057  0.97018174  0.49076575     0.18300
C4224       C  0.45910635  0.00847921  0.50941034     0.26300
C4225       C  0.46309411  0.00739856  0.51944079    -0.11400
C4226       C  0.49570488  0.99841939  0.52365034    -0.25400
C4227       C  0.52435199  0.99045626  0.51755170     0.37200
C4228       C  0.52036609  0.99161760  0.50751271    -0.27100
F4229       F  0.42658806  0.01661168  0.50563944    -0.19200
H4230       H  0.44032361  0.01344380  0.52391759     0.16500
F4231       F  0.55654176  0.98185016  0.52124166    -0.22900
H4232       H  0.54289331  0.98556399  0.50295930     0.18300
C4233       C  0.68406112  0.99499189  0.44537380    -0.26900
C4234       C  0.70655831  0.00255959  0.43780617     0.06700
C4235       C  0.68910149  0.00660792  0.42886581     0.26300
C4236       C  0.64937461  0.00400563  0.42770018    -0.11400
C4237       C  0.62648351  0.99710076  0.43538612    -0.25400
C4238       C  0.64443559  0.99224485  0.44421269     0.37100
C4239       C  0.74836581  0.00558520  0.43924699     0.06700
F4240       F  0.71051391  0.01287807  0.42124106    -0.19200
H4241       H  0.63643100  0.00768365  0.42080726     0.16500
F4242       F  0.62362864  0.98572035  0.45189181    -0.22900
H4243       H  0.69712654  0.99163300  0.45229395     0.18300
C4244       C  0.76622122  0.02378530  0.43703603     0.26300
C4245       C  0.80621737  0.02589796  0.43799889    -0.11400
C4246       C  0.82879385  0.01001389  0.44132863    -0.25400
C4247       C  0.81043917  0.99205759  0.44389402     0.37200
C4248       C  0.77070895  0.98995616  0.44283965    -0.27100
F4249       F  0.74496781  0.03951294  0.43401076    -0.19200
H4250       H  0.81957272  0.03987922  0.43605210     0.16500
F4251       F  0.83094873  0.97608343  0.44695637    -0.22900
H4252       H  0.75744113  0.97582736  0.44457884     0.18300
C4253       C  0.26792353  0.02675595  0.43865731    -0.26900
C4254       C  0.24926478  0.00874451  0.43640602     0.06700
C4255       C  0.27162902  0.99197292  0.43432125     0.26300
C4256       C  0.31171317  0.99319062  0.43441797    -0.11400
C4257       C  0.33074364  0.01113606  0.43660303    -0.25400
C4258       C  0.30842001  0.02799618  0.43875656     0.37100
C4259       C  0.20660316  0.00713514  0.43652770     0.06700
F4260       F  0.25471961  0.97419100  0.43246185    -0.19200
H4261       H  0.32794024  0.97983323  0.43285175     0.16500
F4262       F  0.32552439  0.04566465  0.44072078    -0.22900
H4263       H  0.25107133  0.03988536  0.44025763     0.18300
C4264       C  0.18576748  0.01261831  0.44478585     0.26300
C4265       C  0.14573581  0.01047480  0.44500575    -0.11400
C4266       C  0.12542615  0.00280575  0.43700517    -0.25400
C4267       C  0.14638858  0.99700908  0.42876868     0.37200
C4268       C  0.18663571  0.99919367  0.42855521    -0.27100
F4269       F  0.20422156  0.01959923  0.45274559    -0.19200
H4270       H  0.13058461  0.01490393  0.45150162     0.16500
F4271       F  0.12808107  0.98977414  0.42084764    -0.22900
H4272       H  0.20226789  0.99484811  0.42211792     0.18300
C4273       C  0.90014129  0.98555461  0.26234740    -0.26900
C4274       C  0.88369095  0.00153591  0.25727628     0.06700
C4275       C  0.87065197  0.01815078  0.26250281     0.26300
C4276       C  0.87278955  0.01839244  0.27256687    -0.11400
C4277       C  0.88859050  0.00228450  0.27765370    -0.25400
C4278       C  0.90300935  0.98597366  0.27242754     0.37100
C4279       C  0.87915666  0.00057424  0.24661100     0.06700
F4280       F  0.85617372  0.03428990  0.25789229    -0.19200
H4281       H  0.86208859  0.03129080  0.27639113     0.16500
F4282       F  0.91854717  0.97010951  0.27704251    -0.22900
H4283       H  0.90993680  0.97247709  0.25852541     0.18300
C4284       C  0.90940885  0.99391861  0.24065555     0.26300
C4285       C  0.90443412  0.99285570  0.23065219    -0.11400
C4286       C  0.86943456  0.99864173  0.22633645    -0.25400
C4287       C  0.83924791  0.00543963  0.23230012     0.37200
C4288       C  0.84403982  0.00617386  0.24231723    -0.27100
F4289       F  0.94419254  0.98893443  0.24445684    -0.19200
H4290       H  0.92834890  0.98777771  0.22627033     0.16500
F4291       F  0.80492196  0.01123658  0.22851221    -0.22900
H4292       H  0.82002246  0.01097186  0.24673703     0.18300
C4293       C  0.89986432  0.98644842  0.36802658    -0.26900
C4294       C  0.91920022  0.00255784  0.37229808     0.06700
C4295       C  0.92887062  0.01900164  0.36657694     0.26300
C4296       C  0.91881898  0.01951403  0.35683263    -0.11400
C4297       C  0.89901713  0.00360726  0.35248837    -0.25400
C4298       C  0.88966248  0.98694099  0.35820301     0.37100
C4299       C  0.92882137  0.00264961  0.38273497     0.06700
F4300       F  0.94882305  0.03448110  0.37039171    -0.19200
H4301       H  0.92693872  0.03244209  0.35265662     0.16500
F4302       F  0.87156189  0.97097571  0.35428986    -0.22900
H4303       H  0.89237940  0.97358598  0.37232685     0.18300
C4304       C  0.91536424  0.01805628  0.38868023     0.26300
C4305       C  0.92674346  0.01918842  0.39833918    -0.11400
C4306       C  0.95176423  0.00495188  0.40234486    -0.25400
C4307       C  0.96462505  0.98921871  0.39640607     0.37200
C4308       C  0.95310088  0.98811203  0.38669904    -0.27100
F4309       F  0.89090187  0.03199803  0.38513353    -0.19200
H4310       H  0.91576145  0.03129122  0.40269145     0.16500
F4311       F  0.98812657  0.97484371  0.39994172    -0.22900
H4312       H  0.96375397  0.97612450  0.38221632     0.18300
C4313       C  0.40910449  0.00406858  0.25766571    -0.26900
C4314       C  0.37281500  0.00440065  0.25315367     0.06700
C4315       C  0.33943148  0.00583661  0.25887681     0.26300
C4316       C  0.34241474  0.00685714  0.26893831    -0.11400
C4317       C  0.37865408  0.00610771  0.27348922    -0.25400
C4318       C  0.41210162  0.00477741  0.26774316     0.37100
C4319       C  0.36992152  0.00309568  0.24249520     0.06700
F4320       F  0.30396999  0.00651213  0.25472124    -0.19200
H4321       H  0.31622864  0.00788803  0.27319466     0.16500
F4322       F  0.44768855  0.00450263  0.27184300    -0.22900
H4323       H  0.43516532  0.00298430  0.25336429     0.18300
C4324       C  0.38884517  0.01693060  0.23658022     0.26300
C4325       C  0.38591380  0.01557538  0.22653163    -0.11400
C4326       C  0.36423816  0.00033424  0.22214166    -0.25400
C4327       C  0.34550404  0.98638329  0.22811719     0.37200
C4328       C  0.34825788  0.98786972  0.23818376    -0.27100
F4329       F  0.40950869  0.03201984  0.24052704    -0.19200
H4330       H  0.40067245  0.02657507  0.22218684     0.16500
F4331       F  0.32477976  0.97120063  0.22428816    -0.22900
H4332       H  0.33378713  0.97695373  0.24264188     0.18300
C4333       C  0.59563808  0.00272067  0.30496077    -0.26900
C4334       C  0.61424536  0.01130023  0.31289646     0.06700
C4335       C  0.59293362  0.02279870  0.31946435     0.26300
C4336       C  0.55303759  0.02502190  0.31827326    -0.11400
C4337       C  0.53396229  0.01589311  0.31047483    -0.25400
C4338       C  0.55593679  0.00505126  0.30369643     0.37100
C4339       C  0.65627432  0.00893976  0.31397982     0.06700
F4340       F  0.61058245  0.03136479  0.32716547    -0.19200
H4341       H  0.53692528  0.03329363  0.32363628     0.16500
F4342       F  0.53909050  0.99647418  0.29588423    -0.22900
H4343       H  0.61197738  0.99421065  0.29972791     0.18300
C4344       C  0.67259777  0.99062464  0.31662252     0.26300
C4345       C  0.71281066  0.98858421  0.31728484    -0.11400
C4346       C  0.73702938  0.00464983  0.31504132    -0.25400
C4347       C  0.72031108  0.02293739  0.31236071     0.37200
C4348       C  0.68033690  0.02503832  0.31193496    -0.27100
F4349       F  0.64963012  0.97477763  0.31852363    -0.19200
H4350       H  0.72501075  0.97438579  0.31928970     0.16500
F4351       F  0.74260746  0.03892735  0.31022481    -0.22900
H4352       H  0.66808122  0.03917354  0.30982993     0.18300
C4353       C  0.09356376  0.98850734  0.31492944    -0.26900
C4354       C  0.11504873  0.00486109  0.31804988     0.06700
C4355       C  0.09589253  0.02252555  0.32057008     0.26300
C4356       C  0.05563451  0.02376326  0.31987842    -0.11400
C4357       C  0.03408114  0.00753699  0.31646777    -0.25400
C4358       C  0.05355984  0.98977468  0.31408504     0.37100
C4359       C  0.15751645  0.00399358  0.31751751     0.06700
F4360       F  0.11620081  0.03858404  0.32361836    -0.19200
H4361       H  0.04142742  0.03749580  0.32184121     0.16500
F4362       F  0.03408344  0.97348761  0.31097372    -0.22900
H4363       H  0.10797478  0.97490052  0.31284216     0.18300
C4364       C  0.17890403  0.98992318  0.32276737     0.26300
C4365       C  0.21902131  0.98857514  0.32153087    -0.11400
C4366       C  0.23810963  0.00098621  0.31490132    -0.25400
C4367       C  0.21614344  0.01498735  0.30963959     0.37200
C4368       C  0.17646622  0.01646030  0.31100589    -0.27100
F4369       F  0.16101080  0.97764494  0.32911903    -0.19200
H4370       H  0.23505494  0.97780529  0.32571212     0.16500
F4371       F  0.23278960  0.02752765  0.30319211    -0.22900
H4372       H  0.16026630  0.02713773  0.30679712     0.18300
C4373       C  0.43708448  0.02158257  0.36239207    -0.26900
C4374       C  0.43226595  0.00387820  0.36755900     0.32300
C4375       C  0.41539912  0.98742788  0.36292781     0.26300
C4376       C  0.40388854  0.98872156  0.35326740    -0.11400
C4377       C  0.40905503  0.00639920  0.34803370    -0.25400
C4378       C  0.42564034  0.02291086  0.35274350     0.37100
C4379       C  0.44276628  0.00309562  0.37791661     0.06700
F4380       F  0.41079559  0.96997675  0.36768816    -0.19200
H4381       H  0.39161626  0.97572338  0.34983135     0.16500
F4382       F  0.43056262  0.04045299  0.34808829    -0.22900
H4383       H  0.44920308  0.03454823  0.36589406     0.18300
C4384       C  0.47934560  0.00923597  0.38119837     0.26300
C4385       C  0.48779169  0.00932725  0.39110067    -0.11400
C4386       C  0.45995752  0.00321323  0.39786184    -0.25400
C4387       C  0.42343630  0.99695612  0.39449444     0.37200
C4388       C  0.41511387  0.99694840  0.38465264    -0.27100
F4389       F  0.50702435  0.01487990  0.37482426    -0.19200
H4390       H  0.51611267  0.01406296  0.39346668     0.16500
F4391       F  0.39512628  0.99131079  0.40069865    -0.22900
H4392       H  0.38657183  0.99253107  0.38229564     0.18300
C4393       C  0.60566539  0.26604571  0.48988645    -0.26900
C4394       C  0.61366160  0.24872106  0.49516304     0.06700
C4395       C  0.62494883  0.23154364  0.49008368     0.26300
C4396       C  0.62945630  0.23199293  0.48002787    -0.11400
C4397       C  0.62209542  0.24941152  0.47475541    -0.25400
C4398       C  0.60969383  0.26644434  0.47981317     0.37100
C4399       C  0.61088932  0.24885613  0.50592669     0.06700
F4400       F  0.63082538  0.21416310  0.49480746    -0.19200
H4401       H  0.63828269  0.21854742  0.47634033     0.16500
F4402       F  0.60240619  0.28368098  0.47508488    -0.22900
H4403       H  0.59699249  0.27948187  0.49360635     0.18300
C4404       C  0.64117514  0.24144572  0.51166052     0.26300
C4405       C  0.63857486  0.24185297  0.52174886    -0.11400
C4406       C  0.60613713  0.24999872  0.52640432    -0.25400
C4407       C  0.57593263  0.25759312  0.52068538     0.37200
C4408       C  0.57835331  0.25698196  0.51056323    -0.27100
F4409       F  0.67400542  0.23444191  0.50753120    -0.19200
H4410       H  0.66246545  0.23611649  0.52593964     0.16500
F4411       F  0.54366195  0.26516957  0.52484853    -0.22900
H4412       H  0.55460139  0.26273274  0.50632935     0.18300
C4413       C  0.52663584  0.11088327  0.44334074    -0.26900
C4414       C  0.55537873  0.11640774  0.43669139     0.06700
C4415       C  0.56693063  0.10263285  0.42964860     0.26300
C4416       C  0.54954075  0.08394999  0.42912454    -0.11400
C4417       C  0.52023922  0.07833640  0.43563992    -0.25400
C4418       C  0.50911445  0.09206284  0.44283730     0.37100
C4419       C  0.57247938  0.13668297  0.43680648     0.06700
F4420       F  0.59563720  0.10715086  0.42334182    -0.19200
H4421       H  0.55948582  0.07376408  0.42360399     0.16500
F4422       F  0.48160850  0.08733845  0.44942764    -0.22900
H4423       H  0.51736176  0.12128211  0.44884417     0.18300
C4424       C  0.57072798  0.14863094  0.42850588     0.26300
C4425       C  0.58749083  0.16749638  0.42845054    -0.11400
C4426       C  0.60645859  0.17504576  0.43666500    -0.25400
C4427       C  0.60822009  0.16306017  0.44500907     0.37200
C4428       C  0.59120330  0.14410104  0.44506409    -0.27100
F4429       F  0.55182099  0.14224001  0.42049572    -0.19200
H4430       H  0.58506725  0.17635102  0.42195213     0.16500
F4431       F  0.62522460  0.16984188  0.45320243    -0.22900
H4432       H  0.59280931  0.13514208  0.45154414     0.18300
C4433       C  0.15392296  0.26732569  0.49257885    -0.26900
C4434       C  0.13862616  0.25082347  0.49745642     0.06700
C4435       C  0.12825860  0.23383433  0.49217764     0.26300
C4436       C  0.13144917  0.23375054  0.48216564    -0.11400
C4437       C  0.14556231  0.25044539  0.47724201    -0.25400
C4438       C  0.15773046  0.26712292  0.48253911     0.37100
C4439       C  0.13206437  0.25160228  0.50797363     0.06700
F4440       F  0.11495598  0.21731565  0.49669926    -0.19200
H4441       H  0.12251040  0.22060858  0.47823681     0.16500
F4442       F  0.17140021  0.28355408  0.47801436    -0.22900
H4443       H  0.16177398  0.28063188  0.49651652     0.18300
C4444       C  0.16113954  0.25821301  0.51426282     0.26300
C4445       C  0.15438935  0.25879568  0.52417849    -0.11400
C4446       C  0.11875407  0.25260601  0.52799350    -0.25400
C4447       C  0.08964390  0.24601660  0.52169804     0.37200
C4448       C  0.09623091  0.24570940  0.51176776    -0.27100
F4449       F  0.19637746  0.26359964  0.51086090    -0.19200
H4450       H  0.17737481  0.26377639  0.52889416     0.16500
F4451       F  0.05461104  0.24027184  0.52509146    -0.22900
H4452       H  0.07316726  0.24098015  0.50701633     0.18300
C4453       C  0.93278416  0.24858918  0.45039208    -0.26900
C4454       C  0.91051008  0.25179515  0.44211701     0.06700
C4455       C  0.92883092  0.25776271  0.43351856     0.26300
C4456       C  0.96903570  0.25992550  0.43316847    -0.11400
C4457       C  0.99160897  0.25625954  0.44139809    -0.25400
C4458       C  0.97285147  0.25089467  0.45009343     0.37100
C4459       C  0.86799963  0.24990795  0.44258506     0.06700
F4460       F  0.90785381  0.26094272  0.42538689    -0.19200
H4461       H  0.98257352  0.26387280  0.42638259     0.16500
F4462       F  0.99315530  0.24781388  0.45834593    -0.22900
H4463       H  0.91903010  0.24444518  0.45712768     0.18300
C4464       C  0.84982068  0.23177589  0.44483719     0.26300
C4465       C  0.80933739  0.23026640  0.44467108    -0.11400
C4466       C  0.78669175  0.24685353  0.44230266    -0.25400
C4467       C  0.80526027  0.26520053  0.44058561     0.37200
C4468       C  0.84534356  0.26658257  0.44066240    -0.27100
F4469       F  0.87123039  0.21541265  0.44680921    -0.19200
H4470       H  0.79582723  0.21605469  0.44606588     0.16500
F4471       F  0.78467385  0.28195385  0.43880155    -0.22900
H4472       H  0.85884756  0.28076493  0.43916289     0.18300
C4473       C  0.35074471  0.24880308  0.44628373    -0.26900
C4474       C  0.36847384  0.24546609  0.43730378     0.06700
C4475       C  0.34575836  0.23879882  0.42950864     0.26300
C4476       C  0.30602706  0.23605233  0.43065450    -0.11400
C4477       C  0.28814079  0.24027898  0.43950839    -0.25400
C4478       C  0.31092632  0.24643926  0.44737288     0.37100
C4479       C  0.41058909  0.24873696  0.43614881     0.06700
F4480       F  0.36158466  0.23590636  0.42064836    -0.19200
H4481       H  0.28891392  0.23168528  0.42445796     0.16500
F4482       F  0.29462295  0.25040052  0.45608457    -0.22900
H4483       H  0.36772756  0.25341145  0.45245962     0.18300
C4484       C  0.42862754  0.26599652  0.43972361     0.26300
C4485       C  0.46865783  0.26833290  0.43894760    -0.11400
C4486       C  0.49132412  0.25367922  0.43448300    -0.25400
C4487       C  0.47302990  0.23666536  0.43069933     0.37200
C4488       C  0.43322697  0.23423535  0.43160174    -0.27100
F4489       F  0.40758967  0.28064744  0.44392166    -0.19200
H4490       H  0.48198737  0.28154145  0.44192203     0.16500
F4491       F  0.49371329  0.22179290  0.42657209    -0.22900
H4492       H  0.42019905  0.22065065  0.42896710     0.18300
C4493       C  0.03965236  0.10816874  0.44809411    -0.26900
C4494       C  0.03819378  0.11984295  0.43974169     0.06700
C4495       C  0.01732426  0.11297644  0.43168721     0.26300
C4496       C  0.99976213  0.09419515  0.43189118    -0.11400
C4497       C  0.00304449  0.08207638  0.44011562    -0.25400
C4498       C  0.02219523  0.08957868  0.44833069     0.37100
C4499       C  0.05861380  0.13911990  0.43967099     0.06700
F4500       F  0.01412313  0.12437439  0.42364873    -0.19200
H4501       H  0.98512397  0.08880344  0.42549678     0.16500
F4502       F  0.02496820  0.07873361  0.45656567    -0.22900
H4503       H  0.05527200  0.11327760  0.45440346     0.18300
C4504       C  0.05124132  0.15300775  0.44697912     0.26300
C4505       C  0.07160553  0.17077240  0.44727746    -0.11400
C4506       C  0.09973323  0.17532096  0.44026357    -0.25400
C4507       C  0.10782690  0.16119450  0.43303593     0.37200
C4508       C  0.08722050  0.14324808  0.43274503    -0.27100
F4509       F  0.02361875  0.14958421  0.45373939    -0.19200
H4510       H  0.06453112  0.18120579  0.45296523     0.16500
F4511       F  0.13495256  0.16479606  0.42618406    -0.22900
H4512       H  0.09379965  0.13247860  0.42716986     0.18300
C4513       C  0.72988240  0.23592373  0.25865424    -0.26900
C4514       C  0.75479721  0.25014415  0.25454174     0.06700
C4515       C  0.77450433  0.26323246  0.26071573     0.26300
C4516       C  0.76896611  0.26229126  0.27069020    -0.11400
C4517       C  0.74397177  0.24817073  0.27485423    -0.25400
C4518       C  0.72469160  0.23479384  0.26869630     0.37100
C4519       C  0.75993751  0.25140055  0.24386271     0.06700
F4520       F  0.79992508  0.27670035  0.25714687    -0.19200
H4521       H  0.78473129  0.27268473  0.27517275     0.16500
F4522       F  0.70066441  0.22073303  0.27231804    -0.22900
H4523       H  0.71393968  0.22579148  0.25407116     0.18300
C4524       C  0.76518600  0.23415505  0.23828014     0.26300
C4525       C  0.76797270  0.23542077  0.22823509    -0.11400
C4526       C  0.76643293  0.25386396  0.22351780    -0.25400
C4527       C  0.76285368  0.27120910  0.22907001     0.37200
C4528       C  0.75919116  0.26993130  0.23913767    -0.27100
F4529       F  0.76789242  0.21604923  0.24251753    -0.19200
H4530       H  0.77105850  0.22185306  0.22409432     0.16500
F4531       F  0.76065640  0.28924446  0.22474607    -0.22900
H4532       H  0.75465452  0.28344866  0.24321956     0.18300
C4533       C  0.83699875  0.10977384  0.32335969    -0.26900
C4534       C  0.82489025  0.11849423  0.31462824     0.06700
C4535       C  0.83261933  0.10852648  0.30591225     0.26300
C4536       C  0.84975767  0.08974729  0.30600819    -0.11400
C4537       C  0.86040638  0.08067102  0.31475468    -0.25400
C4538       C  0.85474539  0.09108372  0.32344222     0.37100
C4539       C  0.80530978  0.13816710  0.31468271     0.06700
F4540       F  0.82394041  0.11698402  0.29728698    -0.19200
H4541       H  0.85414671  0.08209435  0.29921112     0.16500
F4542       F  0.86404560  0.08270796  0.33204558    -0.22900
H4543       H  0.83168748  0.11721302  0.33016890     0.18300
C4544       C  0.77126311  0.14173414  0.30936268     0.26300
C4545       C  0.75436820  0.16068957  0.30927480    -0.11400
C4546       C  0.77070113  0.17634054  0.31460938    -0.25400
C4547       C  0.80417870  0.17244753  0.32015478     0.37200
C4548       C  0.82108611  0.15366871  0.32014102    -0.27100
F4549       F  0.75394885  0.12684230  0.30437483    -0.19200
H4550       H  0.72860562  0.16311855  0.30501772     0.16500
F4551       F  0.82171618  0.18691267  0.32539481    -0.22900
H4552       H  0.84725021  0.15136319  0.32426684     0.18300
C4553       C  0.67185501  0.26240922  0.36327488    -0.26900
C4554       C  0.69627308  0.25249007  0.36973734     0.06700
C4555       C  0.72982852  0.24328569  0.36614143     0.26300
C4556       C  0.73857819  0.24406242  0.35625925    -0.11400
C4557       C  0.71406867  0.25399211  0.34975923    -0.25400
C4558       C  0.68050814  0.26323033  0.35342550     0.37100
C4559       C  0.68622468  0.25185858  0.38017370     0.06700
F4560       F  0.75352056  0.23299699  0.37212570    -0.19200
H4561       H  0.76431706  0.23663642  0.35368421     0.16500
F4562       F  0.65547096  0.27283696  0.34751371    -0.22900
H4563       H  0.64595581  0.26965127  0.36588169     0.18300
C4564       C  0.71292798  0.25788224  0.38722583     0.26300
C4565       C  0.70279694  0.25770587  0.39700153    -0.11400
C4566       C  0.66585352  0.25151806  0.40000264    -0.25400
C4567       C  0.63896390  0.24565615  0.39292107     0.37200
C4568       C  0.64912091  0.24590414  0.38311783    -0.27100
F4569       F  0.74848095  0.26451549  0.38465562    -0.19200
H4570       H  0.72411537  0.26240614  0.40224773     0.16500
F4571       F  0.60267190  0.24005827  0.39541799    -0.22900
H4572       H  0.62796404  0.24136362  0.37779517     0.18300
C4573       C  0.21278147  0.26087466  0.24224674    -0.26900
C4574       C  0.24312465  0.25334159  0.24784682     0.06700
C4575       C  0.27527187  0.24489675  0.24322707     0.26300
C4576       C  0.27714333  0.24424407  0.23315302    -0.11400
C4577       C  0.24711152  0.25208125  0.22749060    -0.25400
C4578       C  0.21470628  0.26038720  0.23216414     0.37100
C4579       C  0.24081189  0.25403788  0.25849929     0.06700
F4580       F  0.30453227  0.23693471  0.24846558    -0.19200
H4581       H  0.30235466  0.23771156  0.22978558     0.16500
F4582       F  0.18469299  0.26790538  0.22703674    -0.22900
H4583       H  0.18769286  0.26734138  0.24570744     0.18300
C4584       C  0.26982915  0.26335154  0.26395492     0.26300
C4585       C  0.26789215  0.26337940  0.27403663    -0.11400
C4586       C  0.23720477  0.25396940  0.27884790    -0.25400
C4587       C  0.20770296  0.24503559  0.27335000     0.37200
C4588       C  0.20950188  0.24519388  0.26326556    -0.27100
F4589       F  0.29984137  0.27257253  0.25952416    -0.19200
H4590       H  0.29082574  0.27046935  0.27808779     0.16500
F4591       F  0.17690263  0.23634320  0.27769486    -0.22900
H4592       H  0.18672991  0.23809667  0.25915738     0.18300
C4593       C  0.94196574  0.26667820  0.30551107    -0.26900
C4594       C  0.96155608  0.25108818  0.31012322     0.06700
C4595       C  0.94056344  0.23762318  0.31580234     0.26300
C4596       C  0.90074181  0.23982377  0.31686766    -0.11400
C4597       C  0.88098083  0.25543934  0.31228137    -0.25400
C4598       C  0.90203719  0.26882812  0.30651833     0.37100
C4599       C  0.00418042  0.25023328  0.30982570     0.06700
F4600       F  0.95870863  0.22277470  0.32062113    -0.19200
H4601       H  0.88530893  0.22912306  0.32124711     0.16500
F4602       F  0.88427394  0.28412627  0.30195361    -0.22900
H4603       H  0.95775813  0.27731048  0.30116934     0.18300
C4604       C  0.02416141  0.23267260  0.30748909     0.26300
C4605       C  0.06450640  0.23198588  0.30816499    -0.11400
C4606       C  0.08531480  0.24875710  0.31121187    -0.25400
C4607       C  0.06515221  0.26653477  0.31311271     0.37200
C4608       C  0.02513132  0.26716683  0.31242822    -0.27100
F4609       F  0.00470621  0.21623512  0.30457901    -0.19200
H4610       H  0.07934106  0.21823723  0.30653597     0.16500
F4611       F  0.08396806  0.28340932  0.31569778    -0.22900
H4612       H  0.01031952  0.28084562  0.31422108     0.18300
C4613       C  0.52141789  0.23049691  0.30669063    -0.26900
C4614       C  0.50367583  0.24386964  0.31312523     0.06700
C4615       C  0.52671616  0.25605472  0.31892693     0.26300
C4616       C  0.56664888  0.25498725  0.31831881    -0.11400
C4617       C  0.58503475  0.24179178  0.31187411    -0.25400
C4618       C  0.56192374  0.22934089  0.30608929     0.37100
C4619       C  0.46124607  0.24556293  0.31388182     0.06700
F4620       F  0.51050821  0.26947555  0.32502759    -0.19200
H4621       H  0.58316645  0.26484939  0.32291559     0.16500
F4622       F  0.57823226  0.21632906  0.29981713    -0.22900
H4623       H  0.50388341  0.22094643  0.30217447     0.18300
C4624       C  0.43912924  0.25217329  0.30603140     0.26300
C4625       C  0.39963122  0.25585154  0.30719073    -0.11400
C4626       C  0.38145917  0.25280087  0.31617118    -0.25400
C4627       C  0.40378456  0.24603057  0.32400500     0.37200
C4628       C  0.44326946  0.24255650  0.32284927    -0.27100
F4629       F  0.45594911  0.25563181  0.29733684    -0.19200
H4630       H  0.38313331  0.26080252  0.30100179     0.16500
F4631       F  0.38767656  0.24299489  0.33282106    -0.22900
H4632       H  0.46005959  0.23768029  0.32900716     0.18300
C4633       C  0.27271752  0.14660465  0.30758053    -0.26900
C4634       C  0.29350412  0.13869053  0.31539573     0.06700
C4635       C  0.29762237  0.15008045  0.32383800     0.26300
C4636       C  0.28200609  0.16916817  0.32432927    -0.11400
C4637       C  0.26184811  0.17729503  0.31643883    -0.25400
C4638       C  0.25687691  0.16565104  0.30807909     0.37100
C4639       C  0.31101117  0.11866771  0.31461218     0.06700
F4640       F  0.31653329  0.14273167  0.33164128    -0.19200
H4641       H  0.28622123  0.17770951  0.33087211     0.16500
F4642       F  0.23823326  0.17289664  0.30021438    -0.22900
H4643       H  0.26957020  0.13819789  0.30095969     0.18300
C4644       C  0.28912781  0.10260534  0.31117331     0.26300
C4645       C  0.30600783  0.08395830  0.31010446    -0.11400
C4646       C  0.34492259  0.08076191  0.31256744    -0.25400
C4647       C  0.36673198  0.09673428  0.31618031     0.37200
C4648       C  0.34992088  0.11555463  0.31711063    -0.27100
F4649       F  0.25108640  0.10480166  0.30906854    -0.19200
H4650       H  0.28819829  0.07185477  0.30752070     0.16500
F4651       F  0.40434372  0.09428969  0.31864355    -0.22900
H4652       H  0.36745521  0.12777364  0.31967280     0.18300
C4653       C  0.15895691  0.25535878  0.36593968    -0.26900
C4654       C  0.18707748  0.25147701  0.37293988     0.06700
C4655       C  0.22520280  0.24751081  0.37000523     0.26300
C4656       C  0.23486061  0.24744237  0.36017761    -0.11400
C4657       C  0.20666479  0.25136450  0.35314088    -0.25400
C4658       C  0.16844224  0.25525938  0.35614988     0.37100
C4659       C  0.17584107  0.25067006  0.38323684     0.06700
F4660       F  0.25317144  0.24402583  0.37665507    -0.19200
H4661       H  0.26443793  0.24453121  0.35808324     0.16500
F4662       F  0.13981618  0.25851497  0.34964385    -0.22900
H4663       H  0.12932702  0.25807867  0.36806146     0.18300
C4664       C  0.15723641  0.26677154  0.38772767     0.26300
C4665       C  0.14635538  0.26558525  0.39745222    -0.11400
C4666       C  0.15378008  0.24832093  0.40284436    -0.25400
C4667       C  0.17157877  0.23205236  0.39821208     0.37200
C4668       C  0.18253333  0.23331455  0.38853162    -0.27100
F4669       F  0.15066603  0.28383868  0.38278983    -0.19200
H4670       H  0.13308732  0.27838421  0.40082599     0.16500
F4671       F  0.17848928  0.21485123  0.40300655    -0.22900
H4672       H  0.19606074  0.22062038  0.38512302     0.18300
C4673       C  0.87483626  0.76871548  0.51168564    -0.26900
C4674       C  0.88025060  0.75099280  0.50649065     0.06700
C4675       C  0.88156872  0.73295409  0.51162943     0.26300
C4676       C  0.87694654  0.73274557  0.52168846    -0.11400
C4677       C  0.87026113  0.75042344  0.52681749    -0.25400
C4678       C  0.86960224  0.76847597  0.52170706     0.37100
C4679       C  0.88342156  0.75143221  0.49574334     0.06700
F4680       F  0.88590910  0.71543140  0.50691002    -0.19200
H4681       H  0.87767587  0.71866266  0.52544860     0.16500
F4682       F  0.86481048  0.78598668  0.52641414    -0.22900
H4683       H  0.87473062  0.78285029  0.50797188     0.18300
C4684       C  0.85737976  0.76265547  0.49017204     0.26300
C4685       C  0.85982992  0.76264422  0.48008939    -0.11400
C4686       C  0.88800707  0.75133131  0.47526385    -0.25400
C4687       C  0.91444355  0.74029680  0.48083851     0.37200
C4688       C  0.91217769  0.74045338  0.49095309    -0.27100
F4689       F  0.82856018  0.77312060  0.49444144    -0.19200
H4690       H  0.83894663  0.77122606  0.47604730     0.16500
F4691       F  0.94267323  0.72943460  0.47656112    -0.22900
H4692       H  0.93308869  0.73201278  0.49505408     0.18300
C4693       C  0.91305636  0.85903774  0.44602980    -0.26900
C4694       C  0.92203297  0.86857106  0.43726418     0.06700
C4695       C  0.92222377  0.85732144  0.42869182     0.26300
C4696       C  0.91488146  0.83693446  0.42897779    -0.11400
C4697       C  0.90619761  0.82746559  0.43774514    -0.25400
C4698       C  0.90471372  0.83873690  0.44626841     0.37100
C4699       C  0.93201910  0.89004431  0.43719543     0.06700
F4700       F  0.92902299  0.86603556  0.42001927    -0.19200
H4701       H  0.91579515  0.82850791  0.42231355     0.16500
F4702       F  0.89713709  0.82996599  0.45488771    -0.22900
H4703       H  0.91341825  0.86721779  0.45276316     0.18300
C4704       C  0.91013659  0.90372950  0.44255583     0.26300
C4705       C  0.92094706  0.92365551  0.44290712    -0.11400
C4706       C  0.95346123  0.93059450  0.43781340    -0.25400
C4707       C  0.97468444  0.91703890  0.43218574     0.37200
C4708       C  0.96424775  0.89694649  0.43198476    -0.27100
F4709       F  0.87778967  0.89795508  0.44733180    -0.19200
H4710       H  0.90335893  0.93372638  0.44712726     0.16500
F4711       F  0.00573361  0.92305593  0.42697440    -0.22900
H4712       H  0.98185657  0.88670658  0.42787459     0.18300
C4713       C  0.34911353  0.75807000  0.48625354    -0.26900
C4714       C  0.37192245  0.74489408  0.49159225     0.06700
C4715       C  0.39891079  0.73286064  0.48682250     0.26300
C4716       C  0.40287565  0.73399568  0.47680685    -0.11400
C4717       C  0.38015997  0.74724332  0.47138809    -0.25400
C4718       C  0.35324065  0.75938800  0.47624722     0.37100
C4719       C  0.36834277  0.74441518  0.50217978     0.06700
F4720       F  0.42101141  0.71982366  0.49184413    -0.19200
H4721       H  0.42370049  0.72441753  0.47330055     0.16500
F4722       F  0.33068250  0.77246971  0.47138390    -0.22900
H4723       H  0.32843703  0.76756209  0.48987748     0.18300
C4724       C  0.39980021  0.74975261  0.50798992     0.26300
C4725       C  0.39556886  0.75072945  0.51798455    -0.11400
C4726       C  0.35996391  0.74629170  0.52237741    -0.25400
C4727       C  0.32873724  0.74033455  0.51654271     0.37200
C4728       C  0.33292215  0.73960837  0.50650109    -0.27100
F4729       F  0.43417478  0.75480027  0.50396505    -0.19200
H4730       H  0.42018167  0.75522964  0.52228352     0.16500
F4731       F  0.29390486  0.73586817  0.52047216    -0.22900
H4732       H  0.30843782  0.73546642  0.50207030     0.18300
C4733       C  0.38911089  0.85854679  0.43791608    -0.26900
C4734       C  0.42628053  0.86503773  0.43527703     0.06700
C4735       C  0.45359282  0.85095122  0.43225725     0.26300
C4736       C  0.44383435  0.83086663  0.43186353    -0.11400
C4737       C  0.40676359  0.82426250  0.43454210    -0.25400
C4738       C  0.37937913  0.83834663  0.43758808     0.37100
C4739       C  0.43618730  0.88648891  0.43542954     0.06700
F4740       F  0.48950559  0.85663623  0.42946288    -0.19200
H4741       H  0.46567197  0.82039703  0.42953495     0.16500
F4742       F  0.34312116  0.83269266  0.44007861    -0.22900
H4743       H  0.36762290  0.86915826  0.44028922     0.18300
C4744       C  0.41253221  0.90033440  0.43071464     0.26300
C4745       C  0.42226518  0.92043453  0.43070338    -0.11400
C4746       C  0.45578738  0.92730503  0.43539756    -0.25400
C4747       C  0.47961283  0.91340934  0.44010796     0.37200
C4748       C  0.46981722  0.89321240  0.44010026    -0.27100
F4749       F  0.38042564  0.89437965  0.42589465    -0.19200
H4750       H  0.40323926  0.93065935  0.42700378     0.16500
F4751       F  0.51238665  0.91922755  0.44467531    -0.22900
H4752       H  0.48841327  0.88279465  0.44381071     0.18300
C4753       C  0.60179352  0.73587223  0.44181908    -0.26900
C4754       C  0.61880974  0.75210983  0.43708499     0.06700
C4755       C  0.59542062  0.76579300  0.43225913     0.26300
C4756       C  0.55560832  0.76320621  0.43209036    -0.11400
C4757       C  0.53808955  0.74684125  0.43669227    -0.25400
C4758       C  0.56164912  0.73316050  0.44161105     0.37100
C4759       C  0.66105169  0.75448934  0.43684794     0.06700
F4760       F  0.61112438  0.78180117  0.42777845    -0.19200
H4761       H  0.53849717  0.77419417  0.42832317     0.16500
F4762       F  0.54615097  0.71710293  0.44607312    -0.22900
H4763       H  0.61971134  0.72513562  0.44552217     0.18300
C4764       C  0.68188563  0.75836397  0.44532285     0.26300
C4765       C  0.72201377  0.76046749  0.44495542    -0.11400
C4766       C  0.74191929  0.75846006  0.43614445    -0.25400
C4767       C  0.72069253  0.75508486  0.42762478     0.37200
C4768       C  0.68058041  0.75324657  0.42799851    -0.27100
F4769       F  0.66338074  0.76015381  0.45392411    -0.19200
H4770       H  0.73762182  0.76299246  0.45161858     0.16500
F4771       F  0.73863376  0.75343849  0.41894188    -0.22900
H4772       H  0.66471150  0.75049688  0.42139115     0.18300
C4773       C  0.09588573  0.74455665  0.42846635    -0.26900
C4774       C  0.11784037  0.73989691  0.43663922     0.06700
C4775       C  0.09899211  0.73461218  0.44527223     0.26300
C4776       C  0.05853893  0.73445543  0.44571292    -0.11400
C4777       C  0.03668736  0.73999791  0.43761348    -0.25400
C4778       C  0.05576010  0.74472446  0.42893333     0.37100
C4779       C  0.16025124  0.74169064  0.43608982     0.06700
F4780       F  0.11969218  0.72981563  0.45325827    -0.19200
H4781       H  0.04436903  0.73082536  0.45246043     0.16500
F4782       F  0.03554696  0.74975297  0.42089583    -0.22900
H4783       H  0.10994103  0.74870855  0.42177219     0.18300
C4784       C  0.18114294  0.73111132  0.42909101     0.26300
C4785       C  0.22082056  0.73410770  0.42807829    -0.11400
C4786       C  0.24047362  0.74779099  0.43399036    -0.25400
C4787       C  0.21926800  0.75844894  0.44098955     0.37200
C4788       C  0.17957248  0.75532427  0.44201826    -0.27100
F4789       F  0.16317008  0.71770716  0.42330586    -0.19200
H4790       H  0.23621109  0.72549011  0.42270958     0.16500
F4791       F  0.23670163  0.77182186  0.44688898    -0.22900
H4792       H  0.16369091  0.76385456  0.44733491     0.18300
C4793       C  0.98205497  0.73469413  0.25871512    -0.26900
C4794       C  0.97847068  0.75274494  0.25373062     0.06700
C4795       C  0.97035018  0.77011082  0.25901077     0.26300
C4796       C  0.96711328  0.76944334  0.26910659    -0.11400
C4797       C  0.97249120  0.75152805  0.27412566    -0.25400
C4798       C  0.97938972  0.73406311  0.26880441     0.37100
C4799       C  0.98347478  0.75323726  0.24305735     0.06700
F4800       F  0.96537529  0.78769266  0.25440005    -0.19200
H4801       H  0.96154745  0.78306185  0.27302792     0.16500
F4802       F  0.98332738  0.71633648  0.27335237    -0.22900
H4803       H  0.98782622  0.72110500  0.25478714     0.18300
C4804       C  0.01137829  0.76550836  0.23871030     0.26300
C4805       C  0.01641684  0.76541751  0.22864866    -0.11400
C4806       C  0.99384623  0.75304585  0.22270029    -0.25400
C4807       C  0.96587502  0.74075910  0.22712462     0.37200
C4808       C  0.96101262  0.74084846  0.23716631    -0.27100
F4809       F  0.03457153  0.77715006  0.24422430    -0.19200
H4810       H  0.03829730  0.77493169  0.22552520     0.16500
F4811       F  0.94276481  0.72873907  0.22178287    -0.22900
H4812       H  0.93936153  0.73128478  0.24036401     0.18300
C4813       C  0.91287108  0.85469396  0.31082989    -0.26900
C4814       C  0.93317998  0.86631365  0.31749136     0.06700
C4815       C  0.96314405  0.85768225  0.32287798     0.26300
C4816       C  0.97231366  0.83758152  0.32163346    -0.11400
C4817       C  0.95207101  0.82582518  0.31490793    -0.25400
C4818       C  0.92224691  0.83473468  0.30946794     0.37100
C4819       C  0.92443397  0.88772264  0.31819497     0.06700
F4820       F  0.98326794  0.86866163  0.32938204    -0.19200
H4821       H  0.99524067  0.83122964  0.32595358     0.16500
F4822       F  0.90198185  0.82427604  0.30279347    -0.22900
H4823       H  0.89010801  0.86124680  0.30651769     0.18300
C4824       C  0.95128106  0.90165302  0.31483922     0.26300
C4825       C  0.94150736  0.92170789  0.31441566    -0.11400
C4826       C  0.90489734  0.92838368  0.31743460    -0.25400
C4827       C  0.87846673  0.91446299  0.32115809     0.37200
C4828       C  0.88808185  0.89423979  0.32139735    -0.27100
F4829       F  0.98643413  0.89574555  0.31159039    -0.19200
H4830       H  0.96276195  0.93204679  0.31165808     0.16500
F4831       F  0.84308320  0.92024228  0.32428726    -0.22900
H4832       H  0.86703133  0.88360058  0.32397600     0.18300
C4833       C  0.93306623  0.73383678  0.36411870    -0.26900
C4834       C  0.94035153  0.75108540  0.36951787     0.06700
C4835       C  0.95878850  0.76717369  0.36491364     0.26300
C4836       C  0.96888753  0.76603831  0.35510306    -0.11400
C4837       C  0.96070006  0.74892222  0.34963824    -0.25400
C4838       C  0.94297064  0.73271350  0.35432712     0.37100
C4839       C  0.92966731  0.75183745  0.37997139     0.06700
F4840       F  0.96592315  0.78425975  0.36980199    -0.19200
H4841       H  0.98217318  0.77881431  0.35171639     0.16500
F4842       F  0.93527305  0.71564178  0.34948587    -0.22900
H4843       H  0.91988762  0.72105308  0.36752208     0.18300
C4844       C  0.89302945  0.74558978  0.38323543     0.26300
C4845       C  0.88425512  0.74536434  0.39314688    -0.11400
C4846       C  0.91160232  0.75158693  0.40001210    -0.25400
C4847       C  0.94806474  0.75810563  0.39669402     0.37200
C4848       C  0.95685838  0.75812869  0.38682950    -0.27100
F4849       F  0.86541347  0.74002656  0.37682912    -0.19200
H4850       H  0.85591655  0.74051105  0.39543802     0.16500
F4851       F  0.97587557  0.76401260  0.40298110    -0.22900
H4852       H  0.98542677  0.76267828  0.38456589     0.18300
C4853       C  0.49340469  0.76778828  0.25880093    -0.26900
C4854       C  0.49238056  0.74968110  0.25377603     0.06700
C4855       C  0.48777087  0.73192977  0.25900746     0.26300
C4856       C  0.48336675  0.73241801  0.26903610    -0.11400
C4857       C  0.48454750  0.75051492  0.27404823    -0.25400
C4858       C  0.48974407  0.76824501  0.26884707     0.37100
C4859       C  0.49620038  0.74949903  0.24311124     0.06700
F4860       F  0.48881883  0.71406902  0.25447309    -0.19200
H4861       H  0.48012540  0.71856941  0.27292385     0.16500
F4862       F  0.49045847  0.78604920  0.27344467    -0.22900
H4863       H  0.49670557  0.78164044  0.25491989     0.18300
C4864       C  0.47000429  0.73885454  0.23733946     0.26300
C4865       C  0.47378306  0.73888696  0.22730252    -0.11400
C4866       C  0.50327759  0.74980848  0.22277225    -0.25400
C4867       C  0.52927163  0.76066279  0.22855948     0.37200
C4868       C  0.52572351  0.76042181  0.23862273    -0.27100
F4869       F  0.43985380  0.72899478  0.24136746    -0.19200
H4870       H  0.45294348  0.73066303  0.22306297     0.16500
F4871       F  0.55827007  0.77141518  0.22454565    -0.22900
H4872       H  0.54622269  0.76872532  0.24293275     0.18300
C4873       C  0.43704161  0.85785999  0.31957861    -0.26900
C4874       C  0.44309580  0.86940648  0.31128445     0.06700
C4875       C  0.45952869  0.86034538  0.30306240     0.26300
C4876       C  0.46915821  0.84014890  0.30316735    -0.11400
C4877       C  0.46196562  0.82851997  0.31138138    -0.25400
C4878       C  0.44591501  0.83764921  0.31962404     0.37100
C4879       C  0.43248937  0.89082229  0.31130233     0.06700
F4880       F  0.46490942  0.87079798  0.29479315    -0.19200
H4881       H  0.48093977  0.83343936  0.29668927     0.16500
F4882       F  0.43884756  0.82707140  0.32777935    -0.22900
H4883       H  0.42541634  0.86451028  0.32608613     0.18300
C4884       C  0.39696608  0.89741378  0.31512194     0.26300
C4885       C  0.38760084  0.91763355  0.31509589    -0.11400
C4886       C  0.41313676  0.93165657  0.31116308    -0.25400
C4887       C  0.44880958  0.92505657  0.30743899     0.37200
C4888       C  0.45830750  0.90492212  0.30757402    -0.27100
F4889       F  0.37081163  0.88430181  0.31866730    -0.19200
H4890       H  0.36006063  0.92228169  0.31802575     0.16500
F4891       F  0.47512962  0.93807258  0.30387513    -0.22900
H4892       H  0.48625846  0.90037889  0.30485864     0.18300
C4893       C  0.68897687  0.76663297  0.30964560    -0.26900
C4894       C  0.70552240  0.74842828  0.31241331     0.06700
C4895       C  0.68143846  0.73304116  0.31561888     0.26300
C4896       C  0.64162549  0.73576045  0.31594373    -0.11400
C4897       C  0.62486319  0.75375259  0.31296834    -0.25400
C4898       C  0.64890019  0.76928308  0.30985852     0.37100
C4899       C  0.74777235  0.74545110  0.31186471     0.06700
F4900       F  0.69623604  0.71508560  0.31807490    -0.19200
H4901       H  0.62373545  0.72344735  0.31824252     0.16500
F4902       F  0.63380164  0.78700905  0.30714923    -0.22900
H4903       H  0.70715451  0.77880286  0.30731459     0.18300
C4904       C  0.76812894  0.75023944  0.30340618     0.26300
C4905       C  0.80817023  0.74821548  0.30309559    -0.11400
C4906       C  0.82861592  0.74116980  0.31115509    -0.25400
C4907       C  0.80812468  0.73560244  0.31949465     0.37200
C4908       C  0.76803694  0.73784593  0.31983919    -0.27100
F4909       F  0.74930355  0.75685047  0.29543534    -0.19200
H4910       H  0.82335199  0.75250057  0.29657890     0.16500
F4911       F  0.82693892  0.72918224  0.32750498    -0.22900
H4912       H  0.75290840  0.73419457  0.32645235     0.18300
C4913       C  0.18221727  0.75617581  0.30171124    -0.26900
C4914       C  0.20380232  0.75549352  0.31028305     0.06700
C4915       C  0.18428154  0.75718890  0.31920149     0.26300
C4916       C  0.14413119  0.75906951  0.31947647    -0.11400
C4917       C  0.12254425  0.75882816  0.31092100    -0.25400
C4918       C  0.14200546  0.75759373  0.30200085     0.37100
C4919       C  0.24650744  0.75332028  0.30991312     0.06700
F4920       F  0.20371955  0.75609197  0.32769624    -0.19200
H4921       H  0.12976583  0.75969022  0.32642234     0.16500
F4922       F  0.12216044  0.75761850  0.29354405    -0.22900
H4923       H  0.19647258  0.75553146  0.29475560     0.18300
C4924       C  0.26475039  0.73955870  0.30371227     0.26300
C4925       C  0.30512330  0.73773240  0.30364601    -0.11400
C4926       C  0.32794533  0.74946304  0.30979028    -0.25400
C4927       C  0.30934463  0.76310378  0.31602392     0.37200
C4928       C  0.26942527  0.76514039  0.31592955    -0.27100
F4929       F  0.24362372  0.72757015  0.29786880    -0.19200
H4930       H  0.31847599  0.72714364  0.29879633     0.16500
F4931       F  0.32947383  0.77460677  0.32231764    -0.22900
H4932       H  0.25640486  0.77617461  0.32059895     0.18300
C4933       C  0.41850502  0.75815165  0.36189016    -0.26900
C4934       C  0.43912002  0.74475468  0.36758521     0.06700
C4935       C  0.46913589  0.73356626  0.36355630     0.26300
C4936       C  0.47807153  0.73563553  0.35377882    -0.11400
C4937       C  0.45724127  0.74898390  0.34796420    -0.25400
C4938       C  0.42738003  0.76034857  0.35215647     0.37100
C4939       C  0.43071652  0.74382918  0.37790083     0.06700
F4940       F  0.48983161  0.72080595  0.36909111    -0.19200
H4941       H  0.50111919  0.72672045  0.35076157     0.16500
F4942       F  0.40661936  0.77360217  0.34691274    -0.22900
H4943       H  0.39570553  0.76706666  0.36503794     0.18300
C4944       C  0.44916801  0.75707260  0.38414049     0.26300
C4945       C  0.43891585  0.75763026  0.39383315    -0.11400
C4946       C  0.41005176  0.74494583  0.39747683    -0.25400
C4947       C  0.39188115  0.73143501  0.39116731     0.37200
C4948       C  0.40216790  0.73099256  0.38140358    -0.27100
F4949       F  0.47662453  0.76971374  0.38079442    -0.19200
H4950       H  0.45362528  0.76813598  0.39847182     0.16500
F4951       F  0.36439945  0.71868823  0.39438148    -0.22900
H4952       H  0.38762847  0.72083410  0.37654871     0.18300
C4953       C  0.75346226  0.48865773  0.48800056    -0.26900
C4954       C  0.74261915  0.50546342  0.49331002     0.06700
C4955       C  0.72909133  0.52235319  0.48844629     0.26300
C4956       C  0.72612587  0.52227200  0.47837655    -0.11400
C4957       C  0.73713398  0.50545896  0.47302331    -0.25400
C4958       C  0.75093746  0.48860083  0.47795459     0.37100
C4959       C  0.74463425  0.50490947  0.50393337     0.06700
F4960       F  0.71799162  0.53872094  0.49344653    -0.19200
H4961       H  0.71559801  0.53545314  0.47475897     0.16500
F4962       F  0.76140255  0.47191138  0.47311577    -0.22900
H4963       H  0.76399362  0.47552763  0.49167032     0.18300
C4964       C  0.72432736  0.49029430  0.50904077     0.26300
C4965       C  0.72733453  0.48919466  0.51905195    -0.11400
C4966       C  0.75081687  0.50257305  0.52418851    -0.25400
C4967       C  0.77097314  0.51737392  0.51904493     0.37200
C4968       C  0.76770217  0.51851769  0.50898641    -0.27100
F4969       F  0.70121453  0.47718949  0.50433725    -0.19200
H4970       H  0.71129606  0.47771245  0.52277297     0.16500
F4971       F  0.79364475  0.53077001  0.52368258    -0.22900
H4972       H  0.78364152  0.52982922  0.50511209     0.18300
C4973       C  0.70824145  0.35334494  0.43755640    -0.26900
C4974       C  0.68013672  0.36709418  0.44038257     0.06700
C4975       C  0.64297924  0.36029408  0.44283514     0.26300
C4976       C  0.63415079  0.34003809  0.44232103    -0.11400
C4977       C  0.66202726  0.32630128  0.43922618    -0.25400
C4978       C  0.69945086  0.33318659  0.43695698     0.37100
C4979       C  0.68917222  0.38854451  0.44005395     0.06700
F4980       F  0.61530566  0.37324761  0.44573830    -0.19200
H4981       H  0.60529035  0.33513835  0.44419406     0.16500
F4982       F  0.72782163  0.32046973  0.43421872    -0.22900
H4983       H  0.73694700  0.35831280  0.43556452     0.18300
C4984       C  0.72167660  0.39638370  0.44480703     0.26300
C4985       C  0.73092333  0.41653201  0.44389314    -0.11400
C4986       C  0.70814354  0.42916521  0.43816415    -0.25400
C4987       C  0.67552670  0.42115206  0.43342843     0.37200
C4988       C  0.66629233  0.40111223  0.43440700    -0.27100
F4989       F  0.74419187  0.38460050  0.45041146    -0.19200
H4990       H  0.75598085  0.42223133  0.44767401     0.16500
F4991       F  0.65232015  0.43257618  0.42782279    -0.22900
H4992       H  0.64148999  0.39526980  0.43056197     0.18300
C4993       C  0.82011711  0.60426738  0.43464381    -0.26900
C4994       C  0.80110791  0.61844140  0.44030879     0.06700
C4995       C  0.76638279  0.61312965  0.44493441     0.26300
C4996       C  0.75111047  0.59394361  0.44382851    -0.11400
C4997       C  0.76988817  0.57980110  0.43799940    -0.25400
C4998       C  0.80489472  0.58524193  0.43346672     0.37100
C4999       C  0.81666198  0.63898311  0.44072839     0.06700
F5000       F  0.74751304  0.62641303  0.45059875    -0.19200
H5001       H  0.72445641  0.59019032  0.44750633     0.16500
F5002       F  0.82492033  0.57217448  0.42793126    -0.22900
H5003       H  0.84665604  0.60809135  0.43092416     0.18300
C5004       C  0.85551080  0.64266472  0.44317007     0.26300
C5005       C  0.87082863  0.66189082  0.44247736    -0.11400
C5006       C  0.84794325  0.67767627  0.43915362    -0.25400
C5007       C  0.80880070  0.67402534  0.43698081     0.37200
C5008       C  0.79343660  0.65491027  0.43780358    -0.27100
F5009       F  0.87865532  0.62763763  0.44617476    -0.19200
H5010       H  0.90086193  0.66435118  0.44431905     0.16500
F5011       F  0.78515037  0.68898944  0.43414774    -0.22900
H5012       H  0.76352231  0.65242014  0.43584519     0.18300
C5013       C  0.26768090  0.48349226  0.51234475    -0.26900
C5014       C  0.24279298  0.49669885  0.50758946     0.06700
C5015       C  0.22003167  0.50970784  0.51308497     0.26300
C5016       C  0.22231132  0.50955406  0.52316284    -0.11400
C5017       C  0.24711730  0.49632542  0.52800863    -0.25400
C5018       C  0.26976228  0.48316787  0.52245465     0.37100
C5019       C  0.24094922  0.49708096  0.49690234     0.06700
F5020       F  0.19627252  0.52292422  0.50868651    -0.19200
H5021       H  0.20451981  0.51989404  0.52717600     0.16500
F5022       F  0.29418792  0.47012133  0.52673637    -0.22900
H5023       H  0.28539604  0.47332643  0.50820118     0.18300
C5024       C  0.27391059  0.50156280  0.49142271     0.26300
C5025       C  0.27170282  0.50246536  0.48134700    -0.11400
C5026       C  0.23672172  0.49864702  0.47651592    -0.25400
C5027       C  0.20375671  0.49396756  0.48203665     0.37200
C5028       C  0.20591468  0.49335474  0.49213657    -0.27100
F5029       F  0.30804726  0.50553297  0.49583372    -0.19200
H5030       H  0.29757016  0.50604004  0.47731499     0.16500
F5031       F  0.16928566  0.49034837  0.47772125    -0.22900
H5032       H  0.18021972  0.48988274  0.49626153     0.18300
C5033       C  0.20595089  0.35229408  0.44311881    -0.26900
C5034       C  0.18578421  0.36514196  0.43700949     0.06700
C5035       C  0.15525563  0.35769049  0.43138505     0.26300
C5036       C  0.14499104  0.33758764  0.43197951    -0.11400
C5037       C  0.16512319  0.32465408  0.43816667    -0.25400
C5038       C  0.19593296  0.33233139  0.44372707     0.37100
C5039       C  0.19605950  0.38641712  0.43697797     0.06700
F5040       F  0.13478316  0.36994199  0.42553590    -0.19200
H5041       H  0.12130401  0.33216745  0.42760592     0.16500
F5042       F  0.21674251  0.32064935  0.44978029    -0.22900
H5043       H  0.22965163  0.35780282  0.44747152     0.18300
C5044       C  0.19501708  0.39724657  0.44563831     0.26300
C5045       C  0.20517548  0.41725134  0.44573355    -0.11400
C5046       C  0.21695950  0.42686722  0.43722440    -0.25400
C5047       C  0.21889201  0.41590110  0.42856770     0.37200
C5048       C  0.20821697  0.39582711  0.42845848    -0.27100
F5049       F  0.18320055  0.38856410  0.45397967    -0.19200
H5050       H  0.20336474  0.42531908  0.45248852     0.16500
F5051       F  0.22959229  0.42470481  0.42016836    -0.22900
H5052       H  0.20954778  0.38759355  0.42174493     0.18300
C5053       C  0.02198795  0.52106336  0.43497177    -0.26900
C5054       C  0.00416753  0.50246534  0.43612112     0.06700
C5055       C  0.02703022  0.48587316  0.43829157     0.26300
C5056       C  0.06674141  0.48797973  0.43955031    -0.11400
C5057       C  0.08477228  0.50659426  0.43853285    -0.25400
C5058       C  0.06197503  0.52316362  0.43614159     0.37100
C5059       C  0.96173121  0.50047450  0.43525224     0.06700
F5060       F  0.01107348  0.46751511  0.43897482    -0.19200
H5061       H  0.08355743  0.47481706  0.44113932     0.16500
F5062       F  0.07810955  0.54138416  0.43507460    -0.22900
H5063       H  0.00477140  0.53404204  0.43329929     0.18300
C5064       C  0.94008714  0.49172387  0.44270854     0.26300
C5065       C  0.89998476  0.49039591  0.44198971    -0.11400
C5066       C  0.88047482  0.49795521  0.43388432    -0.25400
C5067       C  0.90232066  0.50636912  0.42631703     0.37200
C5068       C  0.94254588  0.50762409  0.42703864    -0.27100
F5069       F  0.95754629  0.48526877  0.45090227    -0.19200
H5070       H  0.88409622  0.48408533  0.44798799     0.16500
F5071       F  0.88494800  0.51363854  0.41827671    -0.22900
H5072       H  0.95879152  0.51427643  0.42118727     0.18300
C5073       C  0.44325588  0.49935210  0.44330154    -0.26900
C5074       C  0.46044111  0.50568588  0.43465608     0.06700
C5075       C  0.43747691  0.50705502  0.42626800     0.26300
C5076       C  0.39793678  0.50275004  0.42666663    -0.11400
C5077       C  0.38061716  0.49730281  0.43543534    -0.25400
C5078       C  0.40377109  0.49535304  0.44372686     0.37100
C5079       C  0.50254713  0.50987543  0.43442037     0.06700
F5080       F  0.45283379  0.51340167  0.41779267    -0.19200
H5081       H  0.38050083  0.50472188  0.42024799     0.16500
F5082       F  0.38806954  0.48981328  0.45229858    -0.22900
H5083       H  0.46044980  0.49753167  0.44976938     0.18300
C5084       C  0.52069476  0.52122064  0.44169637     0.26300
C5085       C  0.56104579  0.52299311  0.44194843    -0.11400
C5086       C  0.58387401  0.51353810  0.43494647    -0.25400
C5087       C  0.56532398  0.50324218  0.42734675     0.37200
C5088       C  0.52530395  0.50134251  0.42717146    -0.27100
F5089       F  0.49945356  0.53037232  0.44863012    -0.19200
H5090       H  0.57443090  0.53113852  0.44780573     0.16500
F5091       F  0.58582047  0.49446899  0.42015075    -0.22900
H5092       H  0.51221419  0.49246895  0.42152511     0.18300
C5093       C  0.34366166  0.64374607  0.44552809    -0.26900
C5094       C  0.33188522  0.63322536  0.43725679     0.06700
C5095       C  0.33885136  0.64160016  0.42810752     0.26300
C5096       C  0.35534123  0.66050239  0.42732015    -0.11400
C5097       C  0.36600152  0.67125062  0.43560770    -0.25400
C5098       C  0.36081583  0.66248854  0.44473224     0.37100
C5099       C  0.31165201  0.61382478  0.43824812     0.06700
F5100       F  0.32962186  0.63154672  0.41992522    -0.19200
H5101       H  0.35912972  0.66693728  0.42021389     0.16500
F5102       F  0.36971128  0.67260647  0.45291786    -0.22900
H5103       H  0.33827895  0.63776238  0.45265958     0.18300
C5104       C  0.32617953  0.59904252  0.44440017     0.26300
C5105       C  0.30724576  0.58082830  0.44523639    -0.11400
C5106       C  0.27349369  0.57670493  0.43990942    -0.25400
C5107       C  0.25847060  0.59166654  0.43388570     0.37200
C5108       C  0.27736715  0.61002101  0.43310777    -0.27100
F5109       F  0.35960846  0.60186298  0.44933142    -0.19200
H5110       H  0.31989963  0.56969205  0.44989707     0.16500
F5111       F  0.22605202  0.58851876  0.42860088    -0.22900
H5112       H  0.26516931  0.62130909  0.42845773     0.18300
C5113       C  0.64637500  0.52215479  0.25978464    -0.26900
C5114       C  0.62471674  0.50719463  0.25527960     0.06700
C5115       C  0.60757813  0.49232921  0.26088930     0.26300
C5116       C  0.61159046  0.49256517  0.27090318    -0.11400
C5117       C  0.63267923  0.50769123  0.27554795    -0.25400
C5118       C  0.65024149  0.52252420  0.26985924     0.37100
C5119       C  0.62049692  0.50673614  0.24470197     0.06700
F5120       F  0.58727797  0.47744422  0.25665040    -0.19200
H5121       H  0.59793277  0.48084548  0.27502114     0.16500
F5122       F  0.67052461  0.53753325  0.27398876    -0.22900
H5123       H  0.65988077  0.53365836  0.25549281     0.18300
C5124       C  0.58490145  0.51111057  0.24035547     0.26300
C5125       C  0.58046481  0.50923858  0.23035170    -0.11400
C5126       C  0.61126291  0.50261330  0.22457444    -0.25400
C5127       C  0.64708568  0.49848328  0.22899438     0.37200
C5128       C  0.65156381  0.50066052  0.23896454    -0.27100
F5129       F  0.55444058  0.51702271  0.24581441    -0.19200
H5130       H  0.55266430  0.51255938  0.22715035     0.16500
F5131       F  0.67792682  0.49245414  0.22370126    -0.22900
H5132       H  0.67912997  0.49717421  0.24225943     0.18300
C5133       C  0.64111178  0.39579865  0.30399930    -0.26900
C5134       C  0.67662671  0.38856374  0.30741925     0.06700
C5135       C  0.70326044  0.40192697  0.31141633     0.26300
C5136       C  0.69422161  0.42204543  0.31217071    -0.11400
C5137       C  0.65852097  0.42942373  0.30889549    -0.25400
C5138       C  0.63214778  0.41607343  0.30464541     0.37100
C5139       C  0.68526821  0.36701441  0.30736553     0.06700
F5140       F  0.73753361  0.39539290  0.31494534    -0.19200
H5141       H  0.71534129  0.43186458  0.31540669     0.16500
F5142       F  0.59749072  0.42245181  0.30129895    -0.22900
H5143       H  0.62023913  0.38568876  0.30087193     0.18300
C5144       C  0.66118317  0.35369351  0.31229886     0.26300
C5145       C  0.67144490  0.33371147  0.31309303    -0.11400
C5146       C  0.70580861  0.32648271  0.30892723    -0.25400
C5147       C  0.72936839  0.33977975  0.30372994     0.37200
C5148       C  0.71920380  0.35985924  0.30302520    -0.27100
F5149       F  0.62850686  0.36016289  0.31670674    -0.19200
H5150       H  0.65242760  0.32390789  0.31706420     0.16500
F5151       F  0.76251886  0.33355105  0.29947393    -0.22900
H5152       H  0.73808260  0.36992872  0.29916929     0.18300
C5153       C  0.54887393  0.60396561  0.31938730    -0.26900
C5154       C  0.55299694  0.61612918  0.31123959     0.06700
C5155       C  0.57728629  0.60975024  0.30368475     0.26300
C5156       C  0.59700239  0.59153815  0.30434855    -0.11400
C5157       C  0.59276212  0.57933269  0.31253611    -0.25400
C5158       C  0.56831333  0.58587969  0.32006471     0.37100
C5159       C  0.53456755  0.63611597  0.31123737     0.06700
F5160       F  0.58285639  0.62136147  0.29580186    -0.19200
H5161       H  0.61520557  0.58689080  0.29840641     0.16500
F5162       F  0.56308011  0.57488283  0.32817481    -0.22900
H5163       H  0.53053095  0.60856984  0.32531671     0.18300
C5164       C  0.51108130  0.64287298  0.30360503     0.26300
C5165       C  0.49531357  0.66213668  0.30382645    -0.11400
C5166       C  0.50267861  0.67493840  0.31166005    -0.25400
C5167       C  0.52479860  0.66765386  0.31946394     0.37200
C5168       C  0.54046332  0.64860498  0.31920041    -0.27100
F5169       F  0.50313515  0.63083654  0.29599725    -0.19200
H5170       H  0.47827524  0.66720836  0.29775732     0.16500
F5171       F  0.53201223  0.67901213  0.32736783    -0.22900
H5172       H  0.55807792  0.64371337  0.32520915     0.18300
C5173       C  0.69133478  0.48958837  0.36340982    -0.26900
C5174       C  0.67978270  0.50565249  0.36914191     0.06700
C5175       C  0.65701074  0.52072380  0.36509784     0.26300
C5176       C  0.64584909  0.51960319  0.35540937    -0.11400
C5177       C  0.65760668  0.50354963  0.34960750    -0.25400
C5178       C  0.68054412  0.48849273  0.35373738     0.37100
C5179       C  0.69054985  0.50599420  0.37942259     0.06700
F5180       F  0.64503305  0.53629177  0.37055686    -0.19200
H5181       H  0.62851303  0.53146859  0.35241535     0.16500
F5182       F  0.69268769  0.47266914  0.34847472    -0.22900
H5183       H  0.70895793  0.47787048  0.36644943     0.18300
C5184       C  0.67981919  0.49016873  0.38540659     0.26300
C5185       C  0.69081983  0.49002632  0.39506176    -0.11400
C5186       C  0.71277954  0.50565759  0.39897402    -0.25400
C5187       C  0.72358737  0.52156502  0.39295403     0.37200
C5188       C  0.71238143  0.52170331  0.38323736    -0.27100
F5189       F  0.65799816  0.47500442  0.38194092    -0.19200
H5190       H  0.68179286  0.47763573  0.39949995     0.16500
F5191       F  0.74412628  0.53713477  0.39646570    -0.22900
H5192       H  0.72095172  0.53397197  0.37866441     0.18300
C5193       C  0.13129492  0.48489744  0.26163096    -0.26900
C5194       C  0.12283557  0.50241916  0.25653005     0.06700
C5195       C  0.11800995  0.52019196  0.26175824     0.26300
C5196       C  0.12069481  0.52023147  0.27183865    -0.11400
C5197       C  0.12917502  0.50272363  0.27690176    -0.25400
C5198       C  0.13490020  0.48504519  0.27169604     0.37100
C5199       C  0.11845404  0.50193481  0.24582734     0.06700
F5200       F  0.11143292  0.53761457  0.25712957    -0.19200
H5201       H  0.11658497  0.53406642  0.27570262     0.16500
F5202       F  0.14241868  0.46775045  0.27635325    -0.22900
H5203       H  0.13441070  0.47093026  0.25783050     0.18300
C5204       C  0.14502054  0.49161690  0.24000574     0.26300
C5205       C  0.14001309  0.49075998  0.22999778    -0.11400
C5206       C  0.10868095  0.50030690  0.22549354    -0.25400
C5207       C  0.08238090  0.51090253  0.23131212     0.37200
C5208       C  0.08715398  0.51153235  0.24135611    -0.27100
F5209       F  0.17642115  0.48270980  0.24394988    -0.19200
H5210       H  0.16110468  0.48269790  0.22575813     0.16500
F5211       F  0.05199448  0.52065630  0.22735319    -0.22900
H5212       H  0.06595973  0.51936567  0.24566454     0.18300
C5213       C  0.18125791  0.35598415  0.32450507    -0.26900
C5214       C  0.19263751  0.36827785  0.31686861     0.06700
C5215       C  0.21724925  0.36059188  0.30967053     0.26300
C5216       C  0.22916499  0.34077605  0.31000733    -0.11400
C5217       C  0.21657151  0.32826640  0.31746797    -0.25400
C5218       C  0.19298549  0.33621256  0.32483713     0.37100
C5219       C  0.17993285  0.38925714  0.31667569     0.06700
F5220       F  0.22858085  0.37201367  0.30211086    -0.19200
H5221       H  0.24696627  0.33502229  0.30420709     0.16500
F5222       F  0.18081012  0.32486242  0.33234607    -0.22900
H5223       H  0.16326222  0.36173854  0.33026868     0.18300
C5224       C  0.14093272  0.39458682  0.31808772     0.26300
C5225       C  0.12996596  0.41462612  0.31809152    -0.11400
C5226       C  0.15761775  0.42948129  0.31651284    -0.25400
C5227       C  0.19651571  0.42406393  0.31517170     0.37200
C5228       C  0.20745149  0.40420921  0.31532049    -0.27100
F5229       F  0.11337968  0.38043617  0.31919663    -0.19200
H5230       H  0.09987587  0.41850271  0.31906586     0.16500
F5231       F  0.22429798  0.43805497  0.31392011    -0.22900
H5232       H  0.23769756  0.40051880  0.31447802     0.18300
C5233       C  0.92479378  0.50007718  0.30832360    -0.26900
C5234       C  0.90685668  0.50885460  0.31636063     0.06700
C5235       C  0.92899893  0.51253251  0.32472020     0.26300
C5236       C  0.96841197  0.50787682  0.32489674    -0.11400
C5237       C  0.98642277  0.49978872  0.31671619    -0.25400
C5238       C  0.96422813  0.49576508  0.30845159     0.37100
C5239       C  0.86477432  0.51312865  0.31607913     0.06700
F5240       F  0.91297469  0.52144379  0.33255159    -0.19200
H5241       H  0.98529574  0.51161447  0.33122424     0.16500
F5242       F  0.98090654  0.48791161  0.30043904    -0.22900
H5243       H  0.90824179  0.49659794  0.30191145     0.18300
C5244       C  0.84754075  0.52270114  0.30810639     0.26300
C5245       C  0.80721424  0.52433768  0.30745198    -0.11400
C5246       C  0.78355927  0.51635612  0.31470373    -0.25400
C5247       C  0.80108497  0.50791629  0.32294545     0.37200
C5248       C  0.84111727  0.50628961  0.32357544    -0.27100
F5249       F  0.86965510  0.53011931  0.30086464    -0.19200
H5250       H  0.79451273  0.53095840  0.30108200     0.16500
F5251       F  0.77946425  0.50062199  0.33032184    -0.22900
H5252       H  0.85352960  0.49884023  0.32976453     0.18300
C5253       C  0.42773098  0.50108573  0.30545654    -0.26900
C5254       C  0.40716374  0.50520281  0.31396186     0.06700
C5255       C  0.42736553  0.50666209  0.32274299     0.26300
C5256       C  0.46750927  0.50441326  0.32292393    -0.11400
C5257       C  0.48814835  0.50040832  0.31439042    -0.25400
C5258       C  0.46774054  0.49870784  0.30563185     0.37100
C5259       C  0.36457294  0.50707786  0.31357234     0.06700
F5260       F  0.40826396  0.50979958  0.33116870    -0.19200
H5261       H  0.48248714  0.50582550  0.32975808     0.16500
F5262       F  0.48648013  0.49557056  0.29715323    -0.22900
H5263       H  0.41274143  0.49997608  0.29860926     0.18300
C5264       C  0.34517025  0.52338606  0.31767435     0.26300
C5265       C  0.30482524  0.52459414  0.31722903    -0.11400
C5266       C  0.28317237  0.50967326  0.31262431    -0.25400
C5267       C  0.30296633  0.49353213  0.30838188     0.37200
C5268       C  0.34306771  0.49234795  0.30887627    -0.27100
F5269       F  0.36520394  0.53831318  0.32194752    -0.19200
H5270       H  0.29053677  0.53718335  0.32053319     0.16500
F5271       F  0.28376548  0.47851037  0.30393989    -0.22900
H5272       H  0.35741831  0.47963130  0.30569415     0.18300
C5273       C  0.10416168  0.61432195  0.31791986    -0.26900
C5274       C  0.06483923  0.61720508  0.31577440     0.06700
C5275       C  0.04189690  0.60073631  0.31347070     0.26300
C5276       C  0.05803265  0.58180692  0.31320818    -0.11400
C5277       C  0.09738762  0.57876456  0.31528216    -0.25400
C5278       C  0.12033411  0.59521435  0.31778220     0.37100
C5279       C  0.04835330  0.63744737  0.31520209     0.06700
F5280       F  0.00415497  0.60303664  0.31108314    -0.19200
H5281       H  0.03949477  0.56944287  0.31133032     0.16500
F5282       F  0.15843067  0.59295270  0.31977900    -0.22900
H5283       H  0.12234389  0.62691930  0.31963371     0.18300
C5284       C  0.01576753  0.64294312  0.32065331     0.26300
C5285       C  0.99957450  0.66189717  0.31961187    -0.11400
C5286       C  0.01535974  0.67563648  0.31305550    -0.25400
C5287       C  0.04789490  0.66987135  0.30754864     0.37200
C5288       C  0.06417342  0.65107318  0.30869158    -0.27100
F5289       F  0.00000332  0.63007902  0.32708394    -0.19200
H5290       H  0.97483637  0.66585413  0.32399578     0.16500
F5291       F  0.06438943  0.68235540  0.30105532    -0.22900
H5292       H  0.08893628  0.64698973  0.30433386     0.18300
C5293       C  0.18103153  0.52414760  0.38775743    -0.26900
C5294       C  0.18438528  0.50679962  0.38220179     0.06700
C5295       C  0.19947311  0.48959791  0.38651822     0.26300
C5296       C  0.21090772  0.48981125  0.39622276    -0.11400
C5297       C  0.20713219  0.50710062  0.40185825    -0.25400
C5298       C  0.19192286  0.52432269  0.39749722     0.37100
C5299       C  0.17372452  0.50705064  0.37181559     0.06700
F5300       F  0.20397380  0.47270873  0.38128773    -0.19200
H5301       H  0.22227988  0.47630959  0.39936321     0.16500
F5302       F  0.18788864  0.54142565  0.40258676    -0.22900
H5303       H  0.16968237  0.53758548  0.38454113     0.18300
C5304       C  0.14616629  0.49383689  0.36802953     0.26300
C5305       C  0.13731952  0.49403776  0.35814051    -0.11400
C5306       C  0.15580954  0.50739830  0.35182681    -0.25400
C5307       C  0.18311041  0.52078115  0.35572276     0.37200
C5308       C  0.19167929  0.52060826  0.36559348    -0.27100
F5309       F  0.12740983  0.48093760  0.37391876    -0.19200
H5310       H  0.11610034  0.48364328  0.35542728     0.16500
F5311       F  0.20219381  0.53389533  0.35001654    -0.22900
H5312       H  0.21302633  0.53087375  0.36837171     0.18300
loop_ 
_geom_bond_atom_site_label_1 
_geom_bond_atom_site_label_2 
_geom_bond_distance 
_geom_bond_site_symmetry_2 
_ccdc_geom_bond_type 
Zn1           O5   1.972       .  S
Zn1           O6   2.057       .  S
Zn1          O10   2.045       .  S
Zn1          O17   2.017       .  S
Zn2           O5   1.930       .  S
Zn2           O7   2.009       .  S
Zn2           O9   1.975       .  S
Zn2          O13   1.983       .  S
Zn3           O5   1.935       .  S
Zn3           O8   1.984       .  S
Zn3          O11   2.022       .  S
Zn3          O14   1.967       .  S
Zn4           O5   1.979       .  S
Zn4          O12   2.058       .  S
Zn4          O15   2.053       .  S
Zn4          O16   2.045       .  S
O6           C18   1.278       .  A
O7           C19   1.271       .  A
O8           C20   1.270       .  A
O9           C18   1.270       .  A
O10          C20   1.277       .  A
O11          C19   1.272       .  A
O12          C21   1.278       .  A
O13          C22   1.270       .  A
O14          C21   1.269       .  A
O15          C22   1.278       .  A
O16          C23   1.277       .  A
O17          C23   1.274       .  A
C18        C5277   1.483       .  S
C19        C5197   1.478       .  S
C20        C5266   1.486       .  S
C21        C5226   1.474       .  S
C22        C5237   1.472   1_455  S
C23        C5306   1.493       .  S
Zn24         O28   1.922       .  S
Zn24         O29   1.986       .  S
Zn24         O33   1.961       .  S
Zn24         O40   1.994       .  S
Zn25         O28   1.943       .  S
Zn25         O30   1.986       .  S
Zn25         O32   2.017       .  S
Zn25         O36   2.006       .  S
Zn26         O28   1.985       .  S
Zn26         O31   2.082       .  S
Zn26         O34   2.073       .  S
Zn26         O37   2.038       .  S
Zn27         O28   1.947       .  S
Zn27         O35   1.991       .  S
Zn27         O38   2.017       .  S
Zn27         O39   2.048       .  S
O29          C41   1.270       .  A
O30          C42   1.270       .  A
O31          C43   1.282       .  A
O32          C41   1.273       .  A
O33          C43   1.268       .  A
O34          C42   1.280       .  A
O35          C44   1.273       .  A
O36          C45   1.273       .  A
O37          C44   1.277       .  A
O38          C45   1.275       .  A
O39          C46   1.275       .  A
O40          C46   1.271       .  A
C41        C5177   1.478       .  S
C42        C5157   1.493       .  S
C43        C5246   1.483       .  S
C44        C5117   1.484       .  S
C45        C5257   1.480       .  S
C46        C5137   1.488       .  S
Zn47         O51   1.969       .  S
Zn47         O52   2.046       .  S
Zn47         O56   2.022       .  S
Zn47         O63   2.056       .  S
Zn48         O51   1.936       .  S
Zn48         O53   1.989       .  S
Zn48         O55   1.987       .  S
Zn48         O59   2.030       .  S
Zn49         O51   1.970       .  S
Zn49         O54   2.031       .  S
Zn49         O57   2.041       .  S
Zn49         O60   2.052       .  S
Zn50         O51   1.932       .  S
Zn50         O58   1.981       .  S
Zn50         O61   2.010       .  S
Zn50         O62   1.989       .  S
O52          C64   1.278       .  A
O53          C65   1.272       .  A
O54          C66   1.276       .  A
O55          C64   1.272       .  A
O56          C66   1.274       .  A
O57          C65   1.276       .  A
O58          C67   1.270       .  A
O59          C68   1.274       .  A
O60          C67   1.278       .  A
O61          C68   1.272       .  A
O62          C69   1.272       .  A
O63          C69   1.279       .  A
C64        C5057   1.483       .  S
C65        C5046   1.479       .  S
C66        C5297   1.488       .  S
C67        C5077   1.475       .  S
C68        C5026   1.485       .  S
C69        C5106   1.490       .  S
Zn70         O74   1.917       .  S
Zn70         O75   1.953       .  S
Zn70         O79   1.981       .  S
Zn70         O86   1.969       .  S
Zn71         O74   1.982       .  S
Zn71         O76   2.025       .  S
Zn71         O78   2.074       .  S
Zn71         O82   2.055       .  S
Zn72         O74   1.953       .  S
Zn72         O77   2.041       .  S
Zn72         O80   1.994       .  S
Zn72         O83   2.017       .  S
Zn73         O74   1.949       .  S
Zn73         O81   2.013       .  S
Zn73         O84   1.996       .  S
Zn73         O85   2.032       .  S
O75          C87   1.266       .  A
O76          C88   1.276       .  A
O77          C89   1.275       .  A
O78          C87   1.280       .  A
O79          C89   1.268       .  A
O80          C88   1.273       .  A
O81          C90   1.274       .  A
O82          C91   1.278       .  A
O83          C90   1.275       .  A
O84          C91   1.272       .  A
O85          C92   1.274       .  A
O86          C92   1.269       .  A
C87        C5086   1.485       .  S
C88        C4957   1.477       .  S
C89        C4986   1.486       .  S
C90        C5066   1.484       .  S
C91        C4997   1.491       .  S
C92        C5186   1.478       .  S
Zn93         O97   1.920       .  S
Zn93         O98   1.969       .  S
Zn93        O102   1.945       .  S
Zn93        O109   1.980       .  S
Zn94         O97   1.936       .  S
Zn94         O99   1.979       .  S
Zn94        O101   2.004       .  S
Zn94        O105   1.975       .  S
Zn95         O97   1.988       .  S
Zn95        O100   2.078       .  S
Zn95        O103   2.079       .  S
Zn95        O106   2.026       .  S
Zn96         O97   1.968       .  S
Zn96        O104   2.006       .  S
Zn96        O107   2.041       .  S
Zn96        O108   2.052       .  S
O98         C110   1.267       .  A
O99         C111   1.269       .  A
O100        C112   1.281       .  A
O101        C110   1.271       .  A
O102        C112   1.265       .  A
O103        C111   1.279       .  A
O104        C113   1.275       .  A
O105        C114   1.270       .  A
O106        C113   1.277       .  A
O107        C114   1.277       .  A
O108        C115   1.276       .  A
O109        C115   1.267       .  A
C110       C4937   1.474       .  S
C111       C5166   1.493       .  S
C112       C4926   1.487       .  S
C113       C4857   1.474       .  S
C114       C4897   1.475       .  S
C115       C4877   1.482       .  S
Zn116       O120   1.968       .  S
Zn116       O121   2.030       .  S
Zn116       O125   2.019       .  S
Zn116       O132   2.054       .  S
Zn117       O120   1.949       .  S
Zn117       O122   2.004       .  S
Zn117       O124   1.989       .  S
Zn117       O128   2.038       .  S
Zn118       O120   1.973   1_455  S
Zn118       O123   2.052   1_455  S
Zn118       O126   2.039   1_455  S
Zn118       O129   2.045       .  S
Zn119       O120   1.937   1_455  S
Zn119       O127   1.984       .  S
Zn119       O130   2.017   1_455  S
Zn119       O131   1.990       .  S
O121        C133   1.277       .  A
O122        C134   1.273       .  A
O123        C135   1.277       .  A
O124        C133   1.272       .  A
O125        C135   1.274       .  A
O126        C134   1.276       .  A
O127        C136   1.271       .  A
O128        C137   1.274       .  A
O129        C136   1.279       .  A
O130        C137   1.272       .  A
O131        C138   1.270   1_455  A
O132        C138   1.278       .  A
C133       C4906   1.474       .  S
C134       C4817   1.489       .  S
C135       C4837   1.493       .  S
C136       C4917   1.476       .  S
C137       C4797   1.484       .  S
C138       C5286   1.490   1_655  S
Zn139       O143   1.957       .  S
Zn139       O144   2.026       .  S
Zn139       O148   2.012       .  S
Zn139       O155   2.002       .  S
Zn140       O143   1.916       .  S
Zn140       O145   1.980       .  S
Zn140       O147   1.962       .  S
Zn140       O151   1.951       .  S
Zn141       O143   1.962       .  S
Zn141       O146   2.015       .  S
Zn141       O149   2.055       .  S
Zn141       O152   2.004       .  S
Zn142       O143   1.974       .  S
Zn142       O150   2.007       .  S
Zn142       O153   2.059       .  S
Zn142       O154   2.043       .  S
O144        C156   1.274       .  A
O145        C157   1.268       .  A
O146        C158   1.274       .  A
O147        C156   1.268       .  A
O148        C158   1.275       .  A
O149        C157   1.276       .  A
O150        C159   1.274       .  A
O151        C160   1.266       .  A
O152        C159   1.273       .  A
O153        C160   1.277       .  A
O154        C161   1.277       .  A
O155        C161   1.271       .  A
C156       C4946   1.476       .  S
C157       C4737   1.485       .  S
C158       C4786   1.485       .  S
C159       C4717   1.480       .  S
C160       C4757   1.483       .  S
C161       C5097   1.480       .  S
Zn162       O166   1.932       .  S
Zn162       O167   1.995       .  S
Zn162       O171   1.991       .  S
Zn162       O178   1.976       .  S
Zn163       O166   1.960       .  S
Zn163       O168   2.018       .  S
Zn163       O170   2.033       .  S
Zn163       O174   2.018       .  S
Zn164       O166   1.961       .  S
Zn164       O169   2.068       .  S
Zn164       O172   2.010       .  S
Zn164       O175   2.016       .  S
Zn165       O166   1.977       .  S
Zn165       O173   2.046       .  S
Zn165       O176   2.037       .  S
Zn165       O177   2.047       .  S
O167        C179   1.271       .  A
O168        C180   1.275       .  A
O169        C181   1.278       .  A
O170        C179   1.275       .  A
O171        C181   1.269       .  A
O172        C180   1.274       .  A
O173        C182   1.278       .  A
O174        C183   1.274       .  A
O175        C182   1.275       .  A
O176        C183   1.275       .  A
O177        C184   1.277       .  A
O178        C184   1.270       .  A
C179       C4697   1.474       .  S
C180       C4766   1.478       .  S
C181       C4846   1.493       .  S
C182       C5006   1.485       .  S
C183       C4686   1.490       .  S
C184       C4777   1.474   1_655  S
Zn185       O189   1.960       .  S
Zn185       O190   2.021       .  S
Zn185       O194   2.047       .  S
Zn185       O201   2.015       .  S
Zn186       O189   1.954       .  S
Zn186       O191   2.048       .  S
Zn186       O193   2.015       .  S
Zn186       O197   2.000       .  S
Zn187       O189   1.912       .  S
Zn187       O192   1.962       .  S
Zn187       O195   1.976       .  S
Zn187       O198   1.963       .  S
Zn188       O189   1.965       .  S
Zn188       O196   2.044       .  S
Zn188       O199   2.028       .  S
Zn188       O200   2.013       .  S
O190        C202   1.275       .  A
O191        C203   1.276       .  A
O192        C204   1.267       .  A
O193        C202   1.275       .  A
O194        C204   1.277       .  A
O195        C203   1.268       .  A
O196        C205   1.275       .  A
O197        C206   1.273       .  A
O198        C205   1.267       .  A
O199        C206   1.276       .  A
O200        C207   1.273       .  A
O201        C207   1.274       .  A
C202       C4626   1.483       .  S
C203       C4657   1.482       .  S
C204       C5217   1.479       .  S
C205       C4606   1.479       .  S
C206       C4637   1.482       .  S
C207       C4586   1.479       .  S
Zn208       O212   1.949       .  S
Zn208       O213   2.038       .  S
Zn208       O217   2.001       .  S
Zn208       O224   1.975       .  S
Zn209       O212   1.924       .  S
Zn209       O214   1.995       .  S
Zn209       O216   1.998       .  S
Zn209       O220   1.945       .  S
Zn210       O212   1.956       .  S
Zn210       O215   2.015       .  S
Zn210       O218   2.041       .  S
Zn210       O221   1.988       .  S
Zn211       O212   2.002       .  S
Zn211       O219   2.066       .  S
Zn211       O222   2.085       .  S
Zn211       O223   2.076       .  S
O213        C225   1.275       .  A
O214        C226   1.270       .  A
O215        C227   1.274       .  A
O216        C225   1.270       .  A
O217        C227   1.273       .  A
O218        C226   1.275       .  A
O219        C228   1.280       .  A
O220        C229   1.267       .  A
O221        C228   1.272       .  A
O222        C229   1.281       .  A
O223        C230   1.281       .  A
O224        C230   1.269       .  A
C225       C4557   1.489       .  S
C226       C5146   1.488       .  S
C227       C4597   1.480       .  S
C228       C4517   1.491       .  S
C229       C4617   1.488       .  S
C230       C4546   1.491       .  S
Zn231       O235   1.966       .  S
Zn231       O236   1.994       .  S
Zn231       O240   2.058       .  S
Zn231       O247   2.037       .  S
Zn232       O235   1.977       .  S
Zn232       O237   2.070       .  S
Zn232       O239   2.041       .  S
Zn232       O243   2.051       .  S
Zn233       O235   1.915       .  S
Zn233       O238   1.956       .  S
Zn233       O241   1.970       .  S
Zn233       O244   1.975       .  S
Zn234       O235   1.939       .  S
Zn234       O242   2.009       .  S
Zn234       O245   1.975       .  S
Zn234       O246   1.984       .  S
O236        C248   1.272       .  A
O237        C249   1.280       .  A
O238        C250   1.267       .  A
O239        C248   1.278       .  A
O240        C250   1.277       .  A
O241        C249   1.268       .  A
O242        C251   1.270       .  A
O243        C252   1.278       .  A
O244        C251   1.268       .  A
O245        C252   1.270       .  A
O246        C253   1.270       .  A
O247        C253   1.276       .  A
C248       C4666   1.483       .  S
C249       C4457   1.486   1_455  S
C250       C4506   1.484       .  S
C251       C4437   1.469       .  S
C252       C5037   1.486       .  S
C253       C4477   1.474       .  S
Zn254       O258   1.955       .  S
Zn254       O259   1.998       .  S
Zn254       O263   2.003       .  S
Zn254       O270   2.046       .  S
Zn255       O258   1.973       .  S
Zn255       O260   2.023       .  S
Zn255       O262   2.027       .  S
Zn255       O266   2.041       .  S
Zn256       O258   1.987       .  S
Zn256       O261   2.061       .  S
Zn256       O264   2.040       .  S
Zn256       O267   2.081       .  S
Zn257       O258   1.929       .  S
Zn257       O265   1.955       .  S
Zn257       O268   1.982       .  S
Zn257       O269   2.002       .  S
O259        C271   1.272       .  A
O260        C272   1.274       .  A
O261        C273   1.279       .  A
O262        C271   1.276       .  A
O263        C273   1.273       .  A
O264        C272   1.277       .  A
O265        C274   1.267       .  A
O266        C275   1.276       .  A
O267        C274   1.280       .  A
O268        C275   1.269       .  A
O269        C276   1.271       .  A
O270        C276   1.275       .  A
C271       C4486   1.480       .  S
C272       C4397   1.490       .  S
C273       C4426   1.492       .  S
C274       C4466   1.484       .  S
C275       C4977   1.482       .  S
C276       C4566   1.488       .  S
Zn277       O281   1.939   1_565  S
Zn277       O282   2.024       .  S
Zn277       O286   1.996       .  S
Zn277       O293   1.985   1_565  S
Zn278       O281   1.932       .  S
Zn278       O283   1.969       .  S
Zn278       O285   2.012       .  S
Zn278       O289   1.987       .  S
Zn279       O281   1.977   1_565  S
Zn279       O284   2.040       .  S
Zn279       O287   2.054       .  S
Zn279       O290   2.030       .  S
Zn280       O281   1.968       .  S
Zn280       O288   2.000       .  S
Zn280       O291   2.039       .  S
Zn280       O292   2.034       .  S
O282        C294   1.273   1_565  A
O283        C295   1.268       .  A
O284        C296   1.277       .  A
O285        C294   1.272       .  A
O286        C296   1.272       .  A
O287        C295   1.278   1_565  A
O288        C297   1.272       .  A
O289        C298   1.271       .  A
O290        C297   1.276   1_565  A
O291        C298   1.276       .  A
O292        C299   1.276       .  A
O293        C299   1.270       .  A
C294       C4317   1.481       .  S
C295       C4366   1.485       .  S
C296       C4886   1.483       .  S
C297       C4377   1.483       .  S
C298       C4646   1.481       .  S
C299       C4337   1.482       .  S
Zn300       O304   1.932       .  S
Zn300       O305   1.984       .  S
Zn300       O309   1.974       .  S
Zn300       O316   1.994       .  S
Zn301       O304   1.965       .  S
Zn301       O306   1.998       .  S
Zn301       O308   2.055       .  S
Zn301       O312   2.039       .  S
Zn302       O304   1.987   1_565  S
Zn302       O307   2.063       .  S
Zn302       O310   2.049       .  S
Zn302       O313   2.050       .  S
Zn303       O304   1.940   1_565  S
Zn303       O311   1.985       .  S
Zn303       O314   1.979       .  S
Zn303       O315   2.026       .  S
O305        C317   1.269       .  A
O306        C318   1.273       .  A
O307        C319   1.280   1_565  A
O308        C317   1.277       .  A
O309        C319   1.270       .  A
O310        C318   1.277   1_565  A
O311        C320   1.271       .  A
O312        C321   1.276       .  A
O313        C320   1.277       .  A
O314        C321   1.270   1_565  A
O315        C322   1.273   1_565  A
O316        C322   1.270       .  A
C317       C4537   1.480       .  S
C318       C4297   1.488       .  S
C319       C4346   1.478       .  S
C320       C4826   1.484       .  S
C321       C4357   1.481   1_655  S
C322       C4277   1.480       .  S
Zn323       O327   1.986       .  S
Zn323       O328   2.038       .  S
Zn323       O332   2.078       .  S
Zn323       O339   2.062       .  S
Zn324       O327   1.955   1_565  S
Zn324       O329   2.042       .  S
Zn324       O331   1.998       .  S
Zn324       O335   2.003       .  S
Zn325       O327   1.918   1_565  S
Zn325       O330   1.953       .  S
Zn325       O333   1.986       .  S
Zn325       O336   1.972       .  S
Zn326       O327   1.959       .  S
Zn326       O334   2.048       .  S
Zn326       O337   2.011       .  S
Zn326       O338   2.011       .  S
O328        C340   1.277       .  A
O329        C341   1.274       .  A
O330        C342   1.267   1_565  A
O331        C340   1.272   1_565  A
O332        C342   1.280       .  A
O333        C341   1.269       .  A
O334        C343   1.276       .  A
O335        C344   1.273       .  A
O336        C343   1.268   1_565  A
O337        C344   1.274   1_545  A
O338        C345   1.275       .  A
O339        C345   1.279       .  A
C340       C4217   1.481       .  S
C341       C4746   1.487       .  S
C342       C4257   1.484       .  S
C343       C4386   1.483       .  S
C344       C4237   1.479       .  S
C345       C4417   1.496       .  S
Zn346       O350   1.974       .  S
Zn346       O351   2.018       .  S
Zn346       O355   2.057       .  S
Zn346       O362   2.037       .  S
Zn347       O350   1.979   1_465  S
Zn347       O352   2.064       .  S
Zn347       O354   2.035   1_455  S
Zn347       O358   2.048   1_455  S
Zn348       O350   1.927   1_455  S
Zn348       O353   1.971       .  S
Zn348       O356   1.970       .  S
Zn348       O359   2.001       .  S
Zn349       O350   1.939   1_565  S
Zn349       O357   2.016       .  S
Zn349       O360   1.981       .  S
Zn349       O361   1.969       .  S
O351        C363   1.275       .  A
O352        C364   1.280   1_565  A
O353        C365   1.269   1_455  A
O354        C363   1.276   1_565  A
O355        C365   1.277       .  A
O356        C364   1.269       .  A
O357        C366   1.272   1_565  A
O358        C367   1.277       .  A
O359        C366   1.270   1_455  A
O360        C367   1.270       .  A
O361        C368   1.268   1_565  A
O362        C368   1.276       .  A
C363       C4306   1.490       .  S
C364       C4266   1.484       .  S
C365       C4497   1.481   1_655  S
C366       C4197   1.484       .  S
C367       C4706   1.485       .  S
C368       C4246   1.477       .  S
Zn369       O373   1.955       .  S
Zn369       O374   2.024       .  S
Zn369       O378   1.987       .  S
Zn369       O385   1.997       .  S
Zn370       O373   1.929       .  S
Zn370       O375   1.968       .  S
Zn370       O377   1.980       .  S
Zn370       O381   1.996       .  S
Zn371       O373   1.981       .  S
Zn371       O376   2.064       .  S
Zn371       O379   2.056       .  S
Zn371       O382   2.041       .  S
Zn372       O373   1.956       .  S
Zn372       O380   2.011       .  S
Zn372       O383   2.049       .  S
Zn372       O384   2.024       .  S
O374        C386   1.273       .  A
O375        C387   1.269       .  A
O376        C388   1.279       .  A
O377        C386   1.268       .  A
O378        C388   1.271       .  A
O379        C387   1.278       .  A
O380        C389   1.274       .  A
O381        C390   1.270       .  A
O382        C389   1.277       .  A
O383        C390   1.276       .  A
O384        C391   1.276       .  A
O385        C391   1.272       .  A
C386       C4186   1.479       .  S
C387       C4117   1.473       .  S
C388       C4157   1.490       .  S
C389       C5017   1.489       .  S
C390       C4097   1.480       .  S
C391       C4137   1.481       .  S
Zn392       O396   1.962       .  S
Zn392       O397   1.986       .  S
Zn392       O401   2.043       .  S
Zn392       O408   2.042       .  S
Zn393       O396   1.981       .  S
Zn393       O398   2.050       .  S
Zn393       O400   2.034       .  S
Zn393       O404   2.049       .  S
Zn394       O396   1.936       .  S
Zn394       O399   1.973       .  S
Zn394       O402   1.987       .  S
Zn394       O405   2.019       .  S
Zn395       O396   1.932       .  S
Zn395       O403   1.990       .  S
Zn395       O406   1.972       .  S
Zn395       O407   2.004       .  S
O397        C409   1.271       .  A
O398        C410   1.276       .  A
O399        C411   1.269       .  A
O400        C409   1.277       .  A
O401        C411   1.276       .  A
O402        C410   1.270       .  A
O403        C412   1.271       .  A
O404        C413   1.278       .  A
O405        C412   1.273       .  A
O406        C413   1.269       .  A
O407        C414   1.271       .  A
O408        C414   1.276       .  A
C409       C4077   1.481       .  S
C410       C4046   1.476       .  S
C411       C4146   1.483       .  S
C412       C4966   1.480       .  S
C413       C4126   1.480       .  S
C414       C4057   1.482       .  S
Zn415       O419   1.980       .  S
Zn415       O420   2.022       .  S
Zn415       O424   2.068       .  S
Zn415       O431   2.041       .  S
Zn416       O419   1.974       .  S
Zn416       O421   2.061       .  S
Zn416       O423   2.006       .  S
Zn416       O427   2.039       .  S
Zn417       O419   1.913       .  S
Zn417       O422   1.950       .  S
Zn417       O425   1.965       .  S
Zn417       O428   1.978       .  S
Zn418       O419   1.946       .  S
Zn418       O426   2.027       .  S
Zn418       O429   2.001       .  S
Zn418       O430   1.987       .  S
O420        C432   1.276       .  A
O421        C433   1.277       .  A
O422        C434   1.266       .  A
O423        C432   1.274       .  A
O424        C434   1.278       .  A
O425        C433   1.268       .  A
O426        C435   1.274       .  A
O427        C436   1.277       .  A
O428        C435   1.268       .  A
O429        C436   1.273       .  A
O430        C437   1.270       .  A
O431        C437   1.277       .  A
C432       C4177   1.479       .  S
C433       C4026   1.487       .  S
C434       C3977   1.484       .  S
C435       C3946   1.480       .  S
C436       C4006   1.482       .  S
C437       C3957   1.480       .  S
Zn438       O442   1.930       .  S
Zn438       O443   1.988       .  S
Zn438       O447   1.960       .  S
Zn438       O454   1.963       .  S
Zn439       O442   1.958       .  S
Zn439       O444   2.016       .  S
Zn439       O446   2.043       .  S
Zn439       O450   2.027       .  S
Zn440       O442   1.981       .  S
Zn440       O445   2.062       .  S
Zn440       O448   2.037       .  S
Zn440       O451   2.053       .  S
Zn441       O442   1.965       .  S
Zn441       O449   2.009       .  S
Zn441       O452   2.010       .  S
Zn441       O453   2.056       .  S
O443        C455   1.269       .  A
O444        C456   1.274       .  A
O445        C457   1.279       .  A
O446        C455   1.276       .  A
O447        C457   1.267       .  A
O448        C456   1.276       .  A
O449        C458   1.274       .  A
O450        C459   1.277       .  A
O451        C458   1.279       .  A
O452        C459   1.275       .  A
O453        C460   1.276       .  A
O454        C460   1.267       .  A
C455       C3897   1.476       .  S
C456       C3877   1.484       .  S
C457       C3986   1.470       .  S
C458       C3926   1.488       .  S
C459       C3997   1.487   1_655  S
C460       C4086   1.480       .  S
Zn461       O465   1.938       .  S
Zn461       O466   1.988       .  S
Zn461       O470   2.007       .  S
Zn461       O477   1.986       .  S
Zn462       O465   1.986   1_655  S
Zn462       O467   2.060       .  S
Zn462       O469   2.066       .  S
Zn462       O473   2.033       .  S
Zn463       O465   1.934   1_655  S
Zn463       O468   1.990       .  S
Zn463       O471   1.969       .  S
Zn463       O474   2.003       .  S
Zn464       O465   1.958       .  S
Zn464       O472   2.046       .  S
Zn464       O475   1.983       .  S
Zn464       O476   2.030       .  S
O466        C478   1.270       .  A
O467        C479   1.280       .  A
O468        C480   1.271   1_655  A
O469        C478   1.277   1_655  A
O470        C480   1.271       .  A
O471        C479   1.269       .  A
O472        C481   1.275       .  A
O473        C482   1.277   1_655  A
O474        C481   1.271   1_655  A
O475        C482   1.271       .  A
O476        C483   1.275       .  A
O477        C483   1.272       .  A
C478       C3797   1.490       .  S
C479       C3817   1.478       .  S
C480       C3777   1.474       .  S
C481       C3917   1.489   1_455  S
C482       C3866   1.480       .  S
C483       C3846   1.482       .  S
Zn484       O488   1.926       .  S
Zn484       O489   1.984       .  S
Zn484       O493   1.958       .  S
Zn484       O500   1.999       .  S
Zn485       O488   1.954       .  S
Zn485       O490   2.007       .  S
Zn485       O492   2.030       .  S
Zn485       O496   2.001       .  S
Zn486       O488   1.980       .  S
Zn486       O491   2.063       .  S
Zn486       O494   2.049       .  S
Zn486       O497   2.043       .  S
Zn487       O488   1.961       .  S
Zn487       O495   1.999       .  S
Zn487       O498   2.015       .  S
Zn487       O499   2.038       .  S
O489        C501   1.270       .  A
O490        C502   1.273       .  A
O491        C503   1.278       .  A
O492        C501   1.274       .  A
O493        C503   1.268       .  A
O494        C502   1.277       .  A
O495        C504   1.272       .  A
O496        C505   1.273       .  A
O497        C504   1.279       .  A
O498        C505   1.274       .  A
O499        C506   1.275       .  A
O500        C506   1.270       .  A
C501       C3737   1.479       .  S
C502       C3726   1.486       .  S
C503       C3826   1.476       .  S
C504       C4017   1.483       .  S
C505       C3837   1.479       .  S
C506       C3757   1.488       .  S
Zn507       O511   1.963       .  S
Zn507       O512   2.033       .  S
Zn507       O516   2.051       .  S
Zn507       O523   1.989       .  S
Zn508       O511   1.946       .  S
Zn508       O513   2.009       .  S
Zn508       O515   1.989       .  S
Zn508       O519   2.007       .  S
Zn509       O511   1.931       .  S
Zn509       O514   1.989       .  S
Zn509       O517   1.975       .  S
Zn509       O520   1.959       .  S
Zn510       O511   1.981       .  S
Zn510       O518   2.060       .  S
Zn510       O521   2.057       .  S
Zn510       O522   2.027       .  S
O512        C524   1.276   1_455  A
O513        C525   1.272       .  A
O514        C526   1.269       .  A
O515        C524   1.272   1_455  A
O516        C526   1.275       .  A
O517        C525   1.268       .  A
O518        C527   1.279       .  A
O519        C528   1.272       .  A
O520        C527   1.267       .  A
O521        C528   1.277       .  A
O522        C529   1.276       .  A
O523        C529   1.272       .  A
C524       C3686   1.482       .  S
C525       C4446   1.470       .  S
C526       C4166   1.480       .  S
C527       C3697   1.478       .  S
C528       C3657   1.488       .  S
C529       C3857   1.476       .  S
Zn530       O534   1.925       .  S
Zn530       O535   1.954       .  S
Zn530       O539   1.986       .  S
Zn530       O546   1.970       .  S
Zn531       O534   1.985       .  S
Zn531       O536   2.062       .  S
Zn531       O538   2.060       .  S
Zn531       O542   2.052       .  S
Zn532       O534   1.959       .  S
Zn532       O537   2.055       .  S
Zn532       O540   2.002       .  S
Zn532       O543   2.008       .  S
Zn533       O534   1.968       .  S
Zn533       O541   2.018       .  S
Zn533       O544   2.019       .  S
Zn533       O545   2.044       .  S
O535        C547   1.266       .  A
O536        C548   1.280       .  A
O537        C549   1.276       .  A
O538        C547   1.278       .  A
O539        C549   1.268       .  A
O540        C548   1.274       .  A
O541        C550   1.275       .  A
O542        C551   1.278       .  A
O543        C550   1.274       .  A
O544        C551   1.274       .  A
O545        C552   1.275       .  A
O546        C552   1.268       .  A
C547       C3706   1.474       .  S
C548       C4066   1.492       .  S
C549       C3766   1.490       .  S
C550       C3677   1.479       .  S
C551       C4406   1.489       .  S
C552       C3637   1.482       .  S
Zn553       O557   1.960   1_645  S
Zn553       O558   2.006       .  S
Zn553       O562   2.055       .  S
Zn553       O569   2.021       .  S
Zn554       O557   1.986       .  S
Zn554       O559   2.055       .  S
Zn554       O561   2.031       .  S
Zn554       O565   2.056       .  S
Zn555       O557   1.931   1_545  S
Zn555       O560   2.004       .  S
Zn555       O563   1.976       .  S
Zn555       O566   1.989       .  S
Zn556       O557   1.955   1_655  S
Zn556       O564   2.031       .  S
Zn556       O567   1.990       .  S
Zn556       O568   2.002       .  S
O558        C570   1.273   1_645  A
O559        C571   1.278       .  A
O560        C572   1.271       .  A
O561        C570   1.276       .  A
O562        C572   1.277   1_655  A
O563        C571   1.271   1_545  A
O564        C573   1.274   1_655  A
O565        C574   1.277   1_455  A
O566        C573   1.270   1_545  A
O567        C574   1.272       .  A
O568        C575   1.272   1_565  A
O569        C575   1.275       .  A
C570       C4206   1.480       .  S
C571       C3577   1.486       .  S
C572       C3666   1.493       .  S
C573       C3617   1.478       .  S
C574       C3597   1.490       .  S
C575       C3557   1.484       .  S
Zn576       O580   1.951       .  S
Zn576       O581   1.980       .  S
Zn576       O585   2.002       .  S
Zn576       O592   2.021       .  S
Zn577       O580   1.969       .  S
Zn577       O582   2.033       .  S
Zn577       O584   2.036       .  S
Zn577       O588   2.058       .  S
Zn578       O580   1.959   1_545  S
Zn578       O583   2.024       .  S
Zn578       O586   2.003       .  S
Zn578       O589   2.032       .  S
Zn579       O580   1.924   1_545  S
Zn579       O587   1.976       .  S
Zn579       O590   1.976       .  S
Zn579       O591   1.986       .  S
O581        C593   1.270       .  A
O582        C594   1.276       .  A
O583        C595   1.275   1_545  A
O584        C593   1.277       .  A
O585        C595   1.272       .  A
O586        C594   1.273   1_545  A
O587        C596   1.269       .  A
O588        C597   1.278       .  A
O589        C596   1.274       .  A
O590        C597   1.269   1_545  A
O591        C598   1.269   1_545  A
O592        C598   1.273       .  A
C593       C3517   1.476       .  S
C594       C4226   1.484       .  S
C595       C3586   1.483       .  S
C596       C3646   1.464       .  S
C597       C3566   1.481       .  S
C598       C3537   1.476       .  S
Zn599       O603   1.926   1_565  S
Zn599       O604   1.963       .  S
Zn599       O608   1.988       .  S
Zn599       O615   1.989       .  S
Zn600       O603   1.986       .  S
Zn600       O605   2.037       .  S
Zn600       O607   2.070       .  S
Zn600       O611   2.070       .  S
Zn601       O603   1.969   1_565  S
Zn601       O606   2.058       .  S
Zn601       O609   1.995       .  S
Zn601       O612   2.026       .  S
Zn602       O603   1.941       .  S
Zn602       O610   1.989       .  S
Zn602       O613   1.989       .  S
Zn602       O614   2.015       .  S
O604        C616   1.268   1_565  A
O605        C617   1.277   1_545  A
O606        C618   1.277       .  A
O607        C616   1.280       .  A
O608        C618   1.269       .  A
O609        C617   1.272       .  A
O610        C619   1.271   1_445  A
O611        C620   1.279       .  A
O612        C619   1.275   1_455  A
O613        C620   1.271       .  A
O614        C621   1.272       .  A
O615        C621   1.270   1_565  A
C616       C3486   1.479       .  S
C617       C3626   1.474       .  S
C618       C3506   1.493       .  S
C619       C3457   1.483       .  S
C620       C3806   1.492       .  S
C621       C3446   1.473       .  S
Zn622       O626   1.950   1_565  S
Zn622       O627   2.011       .  S
Zn622       O631   2.021       .  S
Zn622       O638   1.983       .  S
Zn623       O626   1.943       .  S
Zn623       O628   2.024       .  S
Zn623       O630   2.005       .  S
Zn623       O634   1.990       .  S
Zn624       O626   1.930       .  S
Zn624       O629   1.991       .  S
Zn624       O632   1.993       .  S
Zn624       O635   1.959       .  S
Zn625       O626   1.986   1_565  S
Zn625       O633   2.067       .  S
Zn625       O636   2.056       .  S
Zn625       O637   2.068       .  S
O627        C639   1.273   1_565  A
O628        C640   1.273       .  A
O629        C641   1.269       .  A
O630        C639   1.274       .  A
O631        C641   1.274   1_565  A
O632        C640   1.271       .  A
O633        C642   1.280       .  A
O634        C643   1.271   1_545  A
O635        C642   1.268   1_545  A
O636        C643   1.278       .  A
O637        C644   1.280       .  A
O638        C644   1.270       .  A
C639       C3466   1.481       .  S
C640       C3746   1.483       .  S
C641       C3546   1.482       .  S
C642       C3477   1.478       .  S
C643       C3397   1.487       .  S
C644       C3426   1.484       .  S
Zn645       O649   1.923       .  S
Zn645       O650   1.980       .  S
Zn645       O654   1.963       .  S
Zn645       O661   1.973       .  S
Zn646       O649   1.952       .  S
Zn646       O651   2.002       .  S
Zn646       O653   2.024       .  S
Zn646       O657   2.003       .  S
Zn647       O649   1.978       .  S
Zn647       O652   2.073       .  S
Zn647       O655   2.052       .  S
Zn647       O658   2.031       .  S
Zn648       O649   1.968       .  S
Zn648       O656   2.010       .  S
Zn648       O659   2.025       .  S
Zn648       O660   2.044       .  S
O650        C662   1.269       .  A
O651        C663   1.273       .  A
O652        C664   1.279       .  A
O653        C662   1.272       .  A
O654        C664   1.267       .  A
O655        C663   1.278       .  A
O656        C665   1.274       .  A
O657        C666   1.273       .  A
O658        C665   1.277       .  A
O659        C666   1.275       .  A
O660        C667   1.276       .  A
O661        C667   1.269       .  A
C662       C4726   1.478       .  S
C663       C4106   1.490       .  S
C664       C3337   1.488       .  S
C665       C3377   1.483       .  S
C666       C3366   1.477       .  S
C667       C3526   1.483       .  S
Zn668       O672   1.928       .  S
Zn668       O673   1.968       .  S
Zn668       O677   1.960       .  S
Zn668       O684   1.998       .  S
Zn669       O672   1.978       .  S
Zn669       O674   2.030       .  S
Zn669       O676   2.067       .  S
Zn669       O680   2.043       .  S
Zn670       O672   1.985       .  S
Zn670       O675   2.074       .  S
Zn670       O678   2.030       .  S
Zn670       O681   2.059       .  S
Zn671       O672   1.946       .  S
Zn671       O679   1.976       .  S
Zn671       O682   1.993       .  S
Zn671       O683   2.031       .  S
O673        C685   1.267       .  A
O674        C686   1.276       .  A
O675        C687   1.280       .  A
O676        C685   1.279       .  A
O677        C687   1.268       .  A
O678        C686   1.276       .  A
O679        C688   1.269       .  A
O680        C689   1.278       .  A
O681        C688   1.277       .  A
O682        C689   1.273       .  A
O683        C690   1.273       .  A
O684        C690   1.270       .  A
C685       C4037   1.489       .  S
C686       C4677   1.484       .  S
C687       C3346   1.483       .  S
C688       C3606   1.486       .  S
C689       C3357   1.483   1_655  S
C690       C3317   1.480       .  S
Zn691       O695   1.955       .  S
Zn691       O696   2.002       .  S
Zn691       O700   2.003       .  S
Zn691       O707   2.033       .  S
Zn692       O695   1.962       .  S
Zn692       O697   2.016       .  S
Zn692       O699   2.015       .  S
Zn692       O703   2.040       .  S
Zn693       O695   1.973       .  S
Zn693       O698   2.031       .  S
Zn693       O701   2.051       .  S
Zn693       O704   2.057       .  S
Zn694       O695   1.926       .  S
Zn694       O702   1.964       .  S
Zn694       O705   1.988       .  S
Zn694       O706   1.990       .  S
O696        C708   1.274       .  A
O697        C709   1.274       .  A
O698        C710   1.275       .  A
O699        C708   1.274       .  A
O700        C710   1.272       .  A
O701        C709   1.279       .  A
O702        C711   1.268       .  A
O703        C712   1.275       .  A
O704        C711   1.279       .  A
O705        C712   1.270       .  A
O706        C713   1.271       .  A
O707        C713   1.274       .  A
C708       C3297   1.474       .  S
C709       C3497   1.486       .  S
C710       C3266   1.486       .  S
C711       C3277   1.478       .  S
C712       C3386   1.484       .  S
C713       C3966   1.485       .  S
Zn714       O718   1.966       .  S
Zn714       O719   2.044       .  S
Zn714       O723   2.002       .  S
Zn714       O730   2.029       .  S
Zn715       O718   1.938       .  S
Zn715       O720   1.975       .  S
Zn715       O722   1.999       .  S
Zn715       O726   2.011       .  S
Zn716       O718   1.983       .  S
Zn716       O721   2.041       .  S
Zn716       O724   2.048       .  S
Zn716       O727   2.051       .  S
Zn717       O718   1.941       .  S
Zn717       O725   1.989       .  S
Zn717       O728   2.022       .  S
Zn717       O729   1.989       .  S
O719        C731   1.277       .  A
O720        C732   1.270       .  A
O721        C733   1.277       .  A
O722        C731   1.272       .  A
O723        C733   1.272       .  A
O724        C732   1.277       .  A
O725        C734   1.271       .  A
O726        C735   1.272       .  A
O727        C734   1.277       .  A
O728        C735   1.273       .  A
O729        C736   1.272       .  A
O730        C736   1.275       .  A
C731       C3417   1.488       .  S
C732       C3286   1.478       .  S
C733       C3326   1.482       .  S
C734       C3906   1.488       .  S
C735       C3246   1.481       .  S
C736       C3306   1.483       .  S
Zn737       O741   1.933       .  S
Zn737       O742   2.008       .  S
Zn737       O746   1.976       .  S
Zn737       O753   2.015       .  S
Zn738       O741   1.953       .  S
Zn738       O743   2.012       .  S
Zn738       O745   2.032       .  S
Zn738       O749   2.064       .  S
Zn739       O741   1.973       .  S
Zn739       O744   2.051       .  S
Zn739       O747   2.007       .  S
Zn739       O750   2.060       .  S
Zn740       O741   1.916       .  S
Zn740       O748   1.971       .  S
Zn740       O751   1.982       .  S
Zn740       O752   1.995       .  S
O742        C754   1.274       .  A
O743        C755   1.276       .  A
O744        C756   1.277       .  A
O745        C754   1.276       .  A
O746        C756   1.270       .  A
O747        C755   1.273       .  A
O748        C757   1.269       .  A
O749        C758   1.279       .  A
O750        C757   1.279       .  A
O751        C758   1.270       .  A
O752        C759   1.270       .  A
O753        C759   1.274       .  A
C754       C3166   1.487       .  S
C755       C3126   1.480       .  S
C756       C3197   1.487       .  S
C757       C3177   1.478       .  S
C758       C3137   1.487       .  S
C759       C3217   1.481       .  S
Zn760       O764   1.926       .  S
Zn760       O765   1.986       .  S
Zn760       O769   1.965       .  S
Zn760       O776   1.992       .  S
Zn761       O764   1.959   1_455  S
Zn761       O766   1.988       .  S
Zn761       O768   2.043   1_455  S
Zn761       O772   2.020       .  S
Zn762       O764   1.984       .  S
Zn762       O767   2.075       .  S
Zn762       O770   2.059       .  S
Zn762       O773   2.046       .  S
Zn763       O764   1.954   1_455  S
Zn763       O771   2.012   1_455  S
Zn763       O774   2.011       .  S
Zn763       O775   2.037   1_455  S
O765        C777   1.269       .  A
O766        C778   1.272       .  A
O767        C779   1.280       .  A
O768        C777   1.275       .  A
O769        C779   1.268       .  A
O770        C778   1.279   1_655  A
O771        C780   1.274       .  A
O772        C781   1.275       .  A
O773        C780   1.277       .  A
O774        C781   1.273       .  A
O775        C782   1.276       .  A
O776        C782   1.270       .  A
C777       C3097   1.485       .  S
C778       C3077   1.489       .  S
C779       C3157   1.487       .  S
C780       C3037   1.486       .  S
C781       C3186   1.485       .  S
C782       C3057   1.484       .  S
Zn783       O787   1.923       .  S
Zn783       O788   1.959       .  S
Zn783       O792   1.982       .  S
Zn783       O799   1.987       .  S
Zn784       O787   1.975       .  S
Zn784       O789   2.011       .  S
Zn784       O791   2.043       .  S
Zn784       O795   2.027       .  S
Zn785       O787   1.960       .  S
Zn785       O790   2.042       .  S
Zn785       O793   2.012       .  S
Zn785       O796   2.025       .  S
Zn786       O787   1.950       .  S
Zn786       O794   2.000       .  S
Zn786       O797   1.993       .  S
Zn786       O798   2.025       .  S
O788        C800   1.268       .  A
O789        C801   1.273       .  A
O790        C802   1.276       .  A
O791        C800   1.275       .  A
O792        C802   1.269       .  A
O793        C801   1.275       .  A
O794        C803   1.273       .  A
O795        C804   1.275       .  A
O796        C803   1.275       .  A
O797        C804   1.271       .  A
O798        C805   1.273       .  A
O799        C805   1.270       .  A
C800       C2977   1.479       .  S
C801       C3937   1.481       .  S
C802       C2957   1.481       .  S
C803       C3006   1.484       .  S
C804       C3017   1.482       .  S
C805       C3226   1.482       .  S
Zn806       O810   1.942       .  S
Zn806       O811   2.023       .  S
Zn806       O815   1.980       .  S
Zn806       O822   1.983       .  S
Zn807       O810   1.931       .  S
Zn807       O812   1.996       .  S
Zn807       O814   2.004       .  S
Zn807       O818   1.975       .  S
Zn808       O810   1.967       .  S
Zn808       O813   2.024       .  S
Zn808       O816   2.049       .  S
Zn808       O819   2.012       .  S
Zn809       O810   1.985       .  S
Zn809       O817   2.049       .  S
Zn809       O820   2.064       .  S
Zn809       O821   2.073       .  S
O811        C823   1.273       .  A
O812        C824   1.271       .  A
O813        C825   1.274       .  A
O814        C823   1.271       .  A
O815        C825   1.270       .  A
O816        C824   1.276       .  A
O817        C826   1.278       .  A
O818        C827   1.271       .  A
O819        C826   1.275       .  A
O820        C827   1.280       .  A
O821        C828   1.280       .  A
O822        C828   1.270       .  A
C823       C3106   1.486       .  S
C824       C2917   1.483       .  S
C825       C2986   1.479       .  S
C826       C3886   1.491       .  S
C827       C2997   1.480   1_655  S
C828       C2937   1.492       .  S
Zn829       O833   1.962       .  S
Zn829       O834   2.020       .  S
Zn829       O838   2.032       .  S
Zn829       O845   2.010       .  S
Zn830       O833   1.954       .  S
Zn830       O835   2.040       .  S
Zn830       O837   2.009       .  S
Zn830       O841   1.984       .  S
Zn831       O833   1.940       .  S
Zn831       O836   2.011       .  S
Zn831       O839   2.010       .  S
Zn831       O842   1.990       .  S
Zn832       O833   1.986       .  S
Zn832       O840   2.059       .  S
Zn832       O843   2.059       .  S
Zn832       O844   2.045       .  S
O834        C846   1.274       .  A
O835        C847   1.274       .  A
O836        C848   1.273       .  A
O837        C846   1.275       .  A
O838        C848   1.275       .  A
O839        C847   1.272       .  A
O840        C849   1.280       .  A
O841        C850   1.271       .  A
O842        C849   1.272       .  A
O843        C850   1.278       .  A
O844        C851   1.277       .  A
O845        C851   1.274       .  A
C846       C2866   1.483   1_455  S
C847       C2897   1.484       .  S
C848       C2837   1.483       .  S
C849       C2877   1.485       .  S
C850       C3086   1.489       .  S
C851       C2817   1.490       .  S
Zn852       O856   1.945       .  S
Zn852       O857   2.020       .  S
Zn852       O861   2.006       .  S
Zn852       O868   1.980       .  S
Zn853       O856   1.920       .  S
Zn853       O858   1.986       .  S
Zn853       O860   1.974       .  S
Zn853       O864   1.956       .  S
Zn854       O856   1.960       .  S
Zn854       O859   2.038       .  S
Zn854       O862   2.060       .  S
Zn854       O865   2.002       .  S
Zn855       O856   1.983       .  S
Zn855       O863   2.008       .  S
Zn855       O866   2.062       .  S
Zn855       O867   2.051       .  S
O857        C869   1.273       .  A
O858        C870   1.270       .  A
O859        C871   1.276       .  A
O860        C869   1.268       .  A
O861        C871   1.273       .  A
O862        C870   1.278       .  A
O863        C872   1.275       .  A
O864        C873   1.266       .  A
O865        C872   1.273       .  A
O866        C873   1.277       .  A
O867        C874   1.276       .  A
O868        C874   1.271       .  A
C869       C2797   1.479       .  S
C870       C2786   1.484       .  S
C871       C2886   1.487       .  S
C872       C2757   1.477       .  S
C873       C2857   1.470       .  S
C874       C3206   1.483       .  S
Zn875       O879   1.929       .  S
Zn875       O880   1.978       .  S
Zn875       O884   1.966       .  S
Zn875       O891   2.008       .  S
Zn876       O879   1.963       .  S
Zn876       O881   2.006       .  S
Zn876       O883   2.029       .  S
Zn876       O887   2.022       .  S
Zn877       O879   1.980       .  S
Zn877       O882   2.066       .  S
Zn877       O885   2.054       .  S
Zn877       O888   2.059       .  S
Zn878       O879   1.936       .  S
Zn878       O886   1.970       .  S
Zn878       O889   1.987       .  S
Zn878       O890   2.016       .  S
O880        C892   1.270       .  A
O881        C893   1.273       .  A
O882        C894   1.279       .  A
O883        C892   1.274       .  A
O884        C894   1.269       .  A
O885        C893   1.279       .  A
O886        C895   1.269       .  A
O887        C896   1.274       .  A
O888        C895   1.280       .  A
O889        C896   1.271       .  A
O890        C897   1.272       .  A
O891        C897   1.271       .  A
C892       C3026   1.472       .  S
C893       C2906   1.487       .  S
C894       C2737   1.480       .  S
C895       C2697   1.483       .  S
C896       C2726   1.475       .  S
C897       C3257   1.485       .  S
Zn898       O902   1.921       .  S
Zn898       O903   1.985       .  S
Zn898       O907   1.962       .  S
Zn898       O914   1.996       .  S
Zn899       O902   1.947       .  S
Zn899       O904   1.981       .  S
Zn899       O906   2.018       .  S
Zn899       O910   2.003       .  S
Zn900       O902   1.987       .  S
Zn900       O905   2.071       .  S
Zn900       O908   2.073       .  S
Zn900       O911   2.035       .  S
Zn901       O902   1.954       .  S
Zn901       O909   2.003       .  S
Zn901       O912   2.010       .  S
Zn901       O913   2.055       .  S
O903        C915   1.270       .  A
O904        C916   1.270       .  A
O905        C917   1.280       .  A
O906        C915   1.273       .  A
O907        C917   1.268       .  A
O908        C916   1.280       .  A
O909        C918   1.274       .  A
O910        C919   1.273       .  A
O911        C918   1.277       .  A
O912        C919   1.274       .  A
O913        C920   1.276       .  A
O914        C920   1.271       .  A
C915       C2806   1.480       .  S
C916       C2946   1.489       .  S
C917       C2746   1.487       .  S
C918       C3237   1.486       .  S
C919       C2717   1.482       .  S
C920       C2686   1.489       .  S
Zn921       O925   1.959       .  S
Zn921       O926   1.994       .  S
Zn921       O930   2.033       .  S
Zn921       O937   2.022       .  S
Zn922       O925   1.978       .  S
Zn922       O927   2.050       .  S
Zn922       O929   2.029       .  S
Zn922       O933   2.051       .  S
Zn923       O925   1.936       .  S
Zn923       O928   1.994       .  S
Zn923       O931   1.982       .  S
Zn923       O934   1.999       .  S
Zn924       O925   1.943       .  S
Zn924       O932   2.023       .  S
Zn924       O935   1.990       .  S
Zn924       O936   1.998       .  S
O926        C938   1.272       .  A
O927        C939   1.278       .  A
O928        C940   1.270       .  A
O929        C938   1.275       .  A
O930        C940   1.275       .  A
O931        C939   1.271       .  A
O932        C941   1.274       .  A
O933        C942   1.278       .  A
O934        C941   1.272       .  A
O935        C942   1.270       .  A
O936        C943   1.273       .  A
O937        C943   1.274       .  A
C938       C2657   1.480       .  S
C939       C2626   1.483       .  S
C940       C2637   1.482       .  S
C941       C2577   1.474       .  S
C942       C3146   1.484       .  S
C943       C2597   1.483       .  S
Zn944       O948   1.929       .  S
Zn944       O949   2.002       .  S
Zn944       O953   1.980       .  S
Zn944       O960   1.972       .  S
Zn945       O948   1.942       .  S
Zn945       O950   1.991       .  S
Zn945       O952   2.019       .  S
Zn945       O956   1.994       .  S
Zn946       O948   1.970       .  S
Zn946       O951   2.070       .  S
Zn946       O954   2.038       .  S
Zn946       O957   2.016       .  S
Zn947       O948   1.975       .  S
Zn947       O955   2.030       .  S
Zn947       O958   2.041       .  S
Zn947       O959   2.045       .  S
O949        C961   1.272       .  A
O950        C962   1.272   1_655  A
O951        C963   1.279       .  A
O952        C961   1.273       .  A
O953        C963   1.270       .  A
O954        C962   1.277   1_655  A
O955        C964   1.276       .  A
O956        C965   1.271       .  A
O957        C964   1.275       .  A
O958        C965   1.276       .  A
O959        C966   1.276       .  A
O960        C966   1.270       .  A
C961       C2517   1.479       .  S
C962       C2617   1.485       .  S
C963       C2546   1.492       .  S
C964       C2566   1.488       .  S
C965       C3066   1.480       .  S
C966       C2606   1.474       .  S
Zn967       O971   1.946       .  S
Zn967       O972   2.026       .  S
Zn967       O976   1.998       .  S
Zn967       O983   1.983       .  S
Zn968       O971   1.928       .  S
Zn968       O973   1.984       .  S
Zn968       O975   1.996       .  S
Zn968       O979   1.955       .  S
Zn969       O971   1.959       .  S
Zn969       O974   2.017       .  S
Zn969       O977   2.035       .  S
Zn969       O980   2.001       .  S
Zn970       O971   1.989       .  S
Zn970       O978   2.057       .  S
Zn970       O981   2.078       .  S
Zn970       O982   2.075       .  S
O972        C984   1.273       .  A
O973        C985   1.269       .  A
O974        C986   1.274       .  A
O975        C984   1.270       .  A
O976        C986   1.272       .  A
O977        C985   1.274       .  A
O978        C987   1.279       .  A
O979        C988   1.267       .  A
O980        C987   1.273       .  A
O981        C988   1.281       .  A
O982        C989   1.281       .  A
O983        C989   1.271       .  A
C984       C2666   1.484       .  S
C985       C2966   1.485       .  S
C986       C2457   1.479       .  S
C987       C3717   1.488       .  S
C988       C2486   1.479       .  S
C989       C2506   1.493       .  S
Zn990       O994   1.929   1_455  S
Zn990       O995   1.973       .  S
Zn990       O999   1.980       .  S
Zn990      O1006   1.958       .  S
Zn991       O994   1.956       .  S
Zn991       O996   1.997       .  S
Zn991       O998   2.028       .  S
Zn991      O1002   2.011       .  S
Zn992       O994   1.961       .  S
Zn992       O997   2.046       .  S
Zn992      O1000   2.029       .  S
Zn992      O1003   1.999       .  S
Zn993       O994   1.983   1_455  S
Zn993      O1001   2.045   1_455  S
Zn993      O1004   2.046   1_455  S
Zn993      O1005   2.069       .  S
O995       C1007   1.267   1_455  A
O996       C1008   1.272       .  A
O997       C1009   1.275   1_655  A
O998       C1007   1.274       .  A
O999       C1009   1.268       .  A
O1000      C1008   1.276       .  A
O1001      C1010   1.277       .  A
O1002      C1011   1.274       .  A
O1003      C1010   1.273       .  A
O1004      C1011   1.278       .  A
O1005      C1012   1.279       .  A
O1006      C1012   1.267       .  A
C1007      C3786   1.476       .  S
C1008      C2466   1.475       .  S
C1009      C2437   1.474       .  S
C1010      C2557   1.482       .  S
C1011      C2926   1.489       .  S
C1012      C2477   1.485       .  S
Zn1013     O1017   1.962       .  S
Zn1013     O1018   2.054       .  S
Zn1013     O1022   1.998       .  S
Zn1013     O1029   2.035       .  S
Zn1014     O1017   1.917       .  S
Zn1014     O1019   1.965       .  S
Zn1014     O1021   1.986       .  S
Zn1014     O1025   1.964       .  S
Zn1015     O1017   1.980   1_545  S
Zn1015     O1020   2.007       .  S
Zn1015     O1023   2.064       .  S
Zn1015     O1026   2.046       .  S
Zn1016     O1017   1.952   1_545  S
Zn1016     O1024   1.983       .  S
Zn1016     O1027   2.022       .  S
Zn1016     O1028   2.001   1_545  S
O1018      C1030   1.277       .  A
O1019      C1031   1.267   1_565  A
O1020      C1032   1.274   1_545  A
O1021      C1030   1.270       .  A
O1022      C1032   1.273       .  A
O1023      C1031   1.277       .  A
O1024      C1033   1.270       .  A
O1025      C1034   1.268       .  A
O1026      C1033   1.277       .  A
O1027      C1034   1.273   1_545  A
O1028      C1035   1.273       .  A
O1029      C1035   1.276       .  A
C1030      C2846   1.489       .  S
C1031      C2386   1.479       .  S
C1032      C2366   1.478       .  S
C1033      C2646   1.482       .  S
C1034      C2426   1.473   1_565  S
C1035      C2406   1.488       .  S
Zn1036     O1040   1.932       .  S
Zn1036     O1041   2.013       .  S
Zn1036     O1045   1.973       .  S
Zn1036     O1052   1.992       .  S
Zn1037     O1040   1.961   1_545  S
Zn1037     O1042   2.008       .  S
Zn1037     O1044   2.058       .  S
Zn1037     O1048   2.018       .  S
Zn1038     O1040   1.979   1_545  S
Zn1038     O1043   2.066       .  S
Zn1038     O1046   2.056       .  S
Zn1038     O1049   2.036       .  S
Zn1039     O1040   1.971       .  S
Zn1039     O1047   2.034       .  S
Zn1039     O1050   2.026       .  S
Zn1039     O1051   2.059       .  S
O1041      C1053   1.272       .  A
O1042      C1054   1.273       .  A
O1043      C1055   1.280   1_545  A
O1044      C1053   1.278   1_545  A
O1045      C1055   1.269       .  A
O1046      C1054   1.279       .  A
O1047      C1056   1.276       .  A
O1048      C1057   1.276   1_545  A
O1049      C1056   1.276   1_545  A
O1050      C1057   1.276       .  A
O1051      C1058   1.278       .  A
O1052      C1058   1.272       .  A
C1053      C2346   1.494       .  S
C1054      C2537   1.487       .  S
C1055      C2397   1.481       .  S
C1056      C2317   1.488       .  S
C1057      C2377   1.489       .  S
C1058      C2777   1.489       .  S
Zn1059     O1063   1.982   1_545  S
Zn1059     O1064   2.060       .  S
Zn1059     O1068   2.023       .  S
Zn1059     O1075   2.082       .  S
Zn1060     O1063   1.937   1_545  S
Zn1060     O1065   1.994       .  S
Zn1060     O1067   1.969       .  S
Zn1060     O1071   2.010       .  S
Zn1061     O1063   1.966       .  S
Zn1061     O1066   2.004       .  S
Zn1061     O1069   2.029       .  S
Zn1061     O1072   2.055       .  S
Zn1062     O1063   1.909       .  S
Zn1062     O1070   1.956       .  S
Zn1062     O1073   1.966       .  S
Zn1062     O1074   1.952       .  S
O1064      C1076   1.278       .  A
O1065      C1077   1.272   1_545  A
O1066      C1078   1.274   1_565  A
O1067      C1076   1.268       .  A
O1068      C1078   1.277       .  A
O1069      C1077   1.275       .  A
O1070      C1079   1.267       .  A
O1071      C1080   1.272   1_545  A
O1072      C1079   1.276       .  A
O1073      C1080   1.267       .  A
O1074      C1081   1.266   1_565  A
O1075      C1081   1.280       .  A
C1076      C2446   1.487       .  S
C1077      C2277   1.476   1_455  S
C1078      C3437   1.482       .  S
C1079      C2706   1.479       .  S
C1080      C2417   1.474       .  S
C1081      C2297   1.484       .  S
Zn1082     O1086   1.959       .  S
Zn1082     O1087   2.019       .  S
Zn1082     O1091   2.009       .  S
Zn1082     O1098   2.040       .  S
Zn1083     O1086   1.965   1_565  S
Zn1083     O1088   2.013       .  S
Zn1083     O1090   2.007       .  S
Zn1083     O1094   2.048       .  S
Zn1084     O1086   1.989   1_565  S
Zn1084     O1089   2.066       .  S
Zn1084     O1092   2.055       .  S
Zn1084     O1095   2.081       .  S
Zn1085     O1086   1.938       .  S
Zn1085     O1093   1.964       .  S
Zn1085     O1096   2.002       .  S
Zn1085     O1097   2.000       .  S
O1087      C1099   1.276       .  A
O1088      C1100   1.274       .  A
O1089      C1101   1.278       .  A
O1090      C1099   1.274   1_565  A
O1091      C1101   1.273   1_545  A
O1092      C1100   1.280       .  A
O1093      C1102   1.269   1_545  A
O1094      C1103   1.276   1_565  A
O1095      C1102   1.282       .  A
O1096      C1103   1.270       .  A
O1097      C1104   1.270       .  A
O1098      C1104   1.275       .  A
C1099      C2286   1.479       .  S
C1100      C2677   1.489       .  S
C1101      C2337   1.497       .  S
C1102      C2306   1.489       .  S
C1103      C3406   1.492       .  S
C1104      C2497   1.474       .  S
Zn1105     O1109   1.925       .  S
Zn1105     O1110   2.004       .  S
Zn1105     O1114   1.958       .  S
Zn1105     O1121   1.980       .  S
Zn1106     O1109   1.948       .  S
Zn1106     O1111   1.998       .  S
Zn1106     O1113   2.037       .  S
Zn1106     O1117   2.003       .  S
Zn1107     O1109   1.978       .  S
Zn1107     O1112   2.061       .  S
Zn1107     O1115   2.039       .  S
Zn1107     O1118   2.052       .  S
Zn1108     O1109   1.961       .  S
Zn1108     O1116   2.017       .  S
Zn1108     O1119   2.018       .  S
Zn1108     O1120   2.047       .  S
O1110      C1122   1.271       .  A
O1111      C1123   1.273       .  A
O1112      C1124   1.279       .  A
O1113      C1122   1.274       .  A
O1114      C1124   1.268       .  A
O1115      C1123   1.277       .  A
O1116      C1125   1.273       .  A
O1117      C1126   1.275   1_455  A
O1118      C1125   1.278       .  A
O1119      C1126   1.275   1_455  A
O1120      C1127   1.277       .  A
O1121      C1127   1.269       .  A
C1122      C5206   1.489       .  S
C1123      C2177   1.484       .  S
C1124      C2217   1.480       .  S
C1125      C2266   1.496       .  S
C1126      C2197   1.482       .  S
C1127      C2246   1.481       .  S
Zn1128     O1132   1.926       .  S
Zn1128     O1133   1.997       .  S
Zn1128     O1137   1.963       .  S
Zn1128     O1144   1.983       .  S
Zn1129     O1132   1.941       .  S
Zn1129     O1134   1.983       .  S
Zn1129     O1136   2.030       .  S
Zn1129     O1140   1.990       .  S
Zn1130     O1132   1.986       .  S
Zn1130     O1135   2.052       .  S
Zn1130     O1138   2.055       .  S
Zn1130     O1141   2.032       .  S
Zn1131     O1132   1.966       .  S
Zn1131     O1139   2.002       .  S
Zn1131     O1142   2.038       .  S
Zn1131     O1143   2.061       .  S
O1133      C1145   1.270       .  A
O1134      C1146   1.271       .  A
O1135      C1147   1.278       .  A
O1136      C1145   1.274       .  A
O1137      C1147   1.267       .  A
O1138      C1146   1.278       .  A
O1139      C1148   1.274       .  A
O1140      C1149   1.272       .  A
O1141      C1148   1.275       .  A
O1142      C1149   1.276       .  A
O1143      C1150   1.278       .  A
O1144      C1150   1.270       .  A
C1145      C5126   1.482       .  S
C1146      C2126   1.484       .  S
C1147      C2206   1.481       .  S
C1148      C2157   1.486       .  S
C1149      C2226   1.486       .  S
C1150      C2137   1.491       .  S
Zn1151     O1155   1.933   1_655  S
Zn1151     O1156   1.981       .  S
Zn1151     O1160   2.010       .  S
Zn1151     O1167   1.962       .  S
Zn1152     O1155   1.974       .  S
Zn1152     O1157   2.047       .  S
Zn1152     O1159   2.054       .  S
Zn1152     O1163   2.022       .  S
Zn1153     O1155   1.949       .  S
Zn1153     O1158   2.046       .  S
Zn1153     O1161   1.984       .  S
Zn1153     O1164   1.995       .  S
Zn1154     O1155   1.982   1_655  S
Zn1154     O1162   2.036       .  S
Zn1154     O1165   2.049       .  S
Zn1154     O1166   2.053       .  S
O1156      C1168   1.270       .  A
O1157      C1169   1.278       .  A
O1158      C1170   1.275       .  A
O1159      C1168   1.278   1_455  A
O1160      C1170   1.271   1_655  A
O1161      C1169   1.272       .  A
O1162      C1171   1.276   1_655  A
O1163      C1172   1.274       .  A
O1164      C1171   1.272       .  A
O1165      C1172   1.277   1_655  A
O1166      C1173   1.278       .  A
O1167      C1173   1.268       .  A
C1168      C2097   1.483       .  S
C1169      C2086   1.486       .  S
C1170      C3046   1.491   1_455  S
C1171      C2046   1.481       .  S
C1172      C2257   1.492       .  S
C1173      C2057   1.478       .  S
Zn1174     O1178   1.944       .  S
Zn1174     O1179   2.016       .  S
Zn1174     O1183   1.991       .  S
Zn1174     O1190   1.986       .  S
Zn1175     O1178   1.927       .  S
Zn1175     O1180   1.992       .  S
Zn1175     O1182   1.991       .  S
Zn1175     O1186   1.964       .  S
Zn1176     O1178   1.958       .  S
Zn1176     O1181   2.025       .  S
Zn1176     O1184   2.039       .  S
Zn1176     O1187   1.990       .  S
Zn1177     O1178   1.984       .  S
Zn1177     O1185   2.038       .  S
Zn1177     O1188   2.065       .  S
Zn1177     O1189   2.052       .  S
O1179      C1191   1.272       .  A
O1180      C1192   1.270       .  A
O1181      C1193   1.276       .  A
O1182      C1191   1.270       .  A
O1183      C1193   1.271       .  A
O1184      C1192   1.274       .  A
O1185      C1194   1.277       .  A
O1186      C1195   1.269       .  A
O1187      C1194   1.271       .  A
O1188      C1195   1.280       .  A
O1189      C1196   1.276       .  A
O1190      C1196   1.271       .  A
C1191      C3117   1.481       .  S
C1192      C2017   1.478       .  S
C1193      C2066   1.481       .  S
C1194      C2166   1.477       .  S
C1195      C2077   1.482       .  S
C1196      C1997   1.482       .  S
Zn1197     O1201   1.948       .  S
Zn1197     O1202   1.990       .  S
Zn1197     O1206   1.999       .  S
Zn1197     O1213   2.018       .  S
Zn1198     O1201   1.974       .  S
Zn1198     O1203   2.018       .  S
Zn1198     O1205   2.044       .  S
Zn1198     O1209   2.055       .  S
Zn1199     O1201   1.976       .  S
Zn1199     O1204   2.044       .  S
Zn1199     O1207   2.029       .  S
Zn1199     O1210   2.067       .  S
Zn1200     O1201   1.929       .  S
Zn1200     O1208   1.967       .  S
Zn1200     O1211   1.972       .  S
Zn1200     O1212   2.001       .  S
O1202      C1214   1.271       .  A
O1203      C1215   1.275       .  A
O1204      C1216   1.278       .  A
O1205      C1214   1.278       .  A
O1206      C1216   1.272       .  A
O1207      C1215   1.275       .  A
O1208      C1217   1.268       .  A
O1209      C1218   1.277       .  A
O1210      C1217   1.279       .  A
O1211      C1218   1.268       .  A
O1212      C1219   1.270       .  A
O1213      C1219   1.273       .  A
C1214      C1946   1.486       .  S
C1215      C1986   1.485       .  S
C1216      C1917   1.481       .  S
C1217      C1957   1.485       .  S
C1218      C2237   1.488       .  S
C1219      C4577   1.482       .  S
Zn1220     O1224   1.995       .  S
Zn1220     O1225   2.062       .  S
Zn1220     O1229   2.082       .  S
Zn1220     O1236   2.092       .  S
Zn1221     O1224   1.956       .  S
Zn1221     O1226   2.020       .  S
Zn1221     O1228   1.982       .  S
Zn1221     O1232   2.045       .  S
Zn1222     O1224   1.948       .  S
Zn1222     O1227   1.986       .  S
Zn1222     O1230   2.015       .  S
Zn1222     O1233   2.035       .  S
Zn1223     O1224   1.921       .  S
Zn1223     O1231   1.983       .  S
Zn1223     O1234   1.978       .  S
Zn1223     O1235   1.953       .  S
O1225      C1237   1.279       .  A
O1226      C1238   1.275       .  A
O1227      C1239   1.271       .  A
O1228      C1237   1.271       .  A
O1229      C1239   1.282       .  A
O1230      C1238   1.274       .  A
O1231      C1240   1.269       .  A
O1232      C1241   1.275       .  A
O1233      C1240   1.275       .  A
O1234      C1241   1.268       .  A
O1235      C1242   1.267       .  A
O1236      C1242   1.282       .  A
C1237      C4526   1.478       .  S
C1238      C1937   1.479       .  S
C1239      C2146   1.487       .  S
C1240      C1897   1.477       .  S
C1241      C1886   1.481       .  S
C1242      C1966   1.489       .  S
Zn1243     O1247   1.972       .  S
Zn1243     O1248   2.037       .  S
Zn1243     O1252   2.070       .  S
Zn1243     O1259   1.997       .  S
Zn1244     O1247   1.942       .  S
Zn1244     O1249   2.025       .  S
Zn1244     O1251   1.984       .  S
Zn1244     O1255   1.986       .  S
Zn1245     O1247   1.919       .  S
Zn1245     O1250   1.968       .  S
Zn1245     O1253   1.993       .  S
Zn1245     O1256   1.952       .  S
Zn1246     O1247   1.990       .  S
Zn1246     O1254   2.071       .  S
Zn1246     O1257   2.060       .  S
Zn1246     O1258   2.052       .  S
O1248      C1260   1.276       .  A
O1249      C1261   1.273       .  A
O1250      C1262   1.268       .  A
O1251      C1260   1.271       .  A
O1252      C1262   1.279       .  A
O1253      C1261   1.268       .  A
O1254      C1263   1.279       .  A
O1255      C1264   1.271       .  A
O1256      C1263   1.267       .  A
O1257      C1264   1.278       .  A
O1258      C1265   1.279       .  A
O1259      C1265   1.273       .  A
C1260      C1866   1.480       .  S
C1261      C2586   1.484       .  S
C1262      C2026   1.488       .  S
C1263      C1837   1.480       .  S
C1264      C1817   1.489       .  S
C1265      C1977   1.483       .  S
Zn1266     O1270   1.935       .  S
Zn1266     O1271   2.010       .  S
Zn1266     O1275   1.984       .  S
Zn1266     O1282   1.981       .  S
Zn1267     O1270   1.916       .  S
Zn1267     O1272   1.972       .  S
Zn1267     O1274   1.997       .  S
Zn1267     O1278   1.968       .  S
Zn1268     O1270   1.963       .  S
Zn1268     O1273   2.038       .  S
Zn1268     O1276   2.053       .  S
Zn1268     O1279   1.986       .  S
Zn1269     O1270   1.978       .  S
Zn1269     O1277   2.035       .  S
Zn1269     O1280   2.060       .  S
Zn1269     O1281   2.042       .  S
O1271      C1283   1.271       .  A
O1272      C1284   1.268       .  A
O1273      C1285   1.276       .  A
O1274      C1283   1.271       .  A
O1275      C1285   1.271       .  A
O1276      C1284   1.277       .  A
O1277      C1286   1.276       .  A
O1278      C1287   1.269       .  A
O1279      C1286   1.271       .  A
O1280      C1287   1.278       .  A
O1281      C1288   1.277       .  A
O1282      C1288   1.270       .  A
C1283      C2526   1.478       .  S
C1284      C2106   1.487       .  S
C1285      C1846   1.484       .  S
C1286      C1906   1.476       .  S
C1287      C1857   1.487   1_655  S
C1288      C1806   1.476       .  S
Zn1289     O1293   1.957       .  S
Zn1289     O1294   2.001       .  S
Zn1289     O1298   2.013       .  S
Zn1289     O1305   2.038       .  S
Zn1290     O1293   1.983       .  S
Zn1290     O1295   2.040       .  S
Zn1290     O1297   2.061       .  S
Zn1290     O1301   2.067       .  S
Zn1291     O1293   1.959   1_545  S
Zn1291     O1296   2.008       .  S
Zn1291     O1299   2.007       .  S
Zn1291     O1302   2.049       .  S
Zn1292     O1293   1.923   1_545  S
Zn1292     O1300   1.979       .  S
Zn1292     O1303   1.958       .  S
Zn1292     O1304   1.975       .  S
O1294      C1306   1.274       .  A
O1295      C1307   1.277       .  A
O1296      C1308   1.274       .  A
O1297      C1306   1.279       .  A
O1298      C1308   1.274   1_565  A
O1299      C1307   1.274   1_545  A
O1300      C1309   1.268       .  A
O1301      C1310   1.279       .  A
O1302      C1309   1.275       .  A
O1303      C1310   1.267   1_545  A
O1304      C1311   1.267       .  A
O1305      C1311   1.275   1_565  A
C1306      C1757   1.493       .  S
C1307      C4326   1.489   1_565  S
C1308      C1726   1.483       .  S
C1309      C1926   1.487       .  S
C1310      C1746   1.480       .  S
C1311      C1777   1.477       .  S
Zn1312     O1316   1.942   1_545  S
Zn1312     O1317   2.019       .  S
Zn1312     O1321   1.989       .  S
Zn1312     O1328   1.999       .  S
Zn1313     O1316   1.934       .  S
Zn1313     O1318   1.991       .  S
Zn1313     O1320   2.004       .  S
Zn1313     O1324   1.966       .  S
Zn1314     O1316   1.960       .  S
Zn1314     O1319   2.038       .  S
Zn1314     O1322   2.042       .  S
Zn1314     O1325   2.008       .  S
Zn1315     O1316   1.978   1_545  S
Zn1315     O1323   2.050       .  S
Zn1315     O1326   2.051       .  S
Zn1315     O1327   2.041       .  S
O1317      C1329   1.273   1_545  A
O1318      C1330   1.270       .  A
O1319      C1331   1.277       .  A
O1320      C1329   1.271       .  A
O1321      C1331   1.273   1_545  A
O1322      C1330   1.276       .  A
O1323      C1332   1.277   1_545  A
O1324      C1333   1.269   1_565  A
O1325      C1332   1.274       .  A
O1326      C1333   1.277       .  A
O1327      C1334   1.277       .  A
O1328      C1334   1.272       .  A
C1329      C4286   1.484       .  S
C1330      C1677   1.478       .  S
C1331      C1717   1.479       .  S
C1332      C1697   1.492   1_565  S
C1333      C1737   1.473   1_645  S
C1334      C1877   1.483       .  S
Zn1335     O1339   1.968       .  S
Zn1335     O1340   1.990       .  S
Zn1335     O1344   2.039       .  S
Zn1335     O1351   2.075       .  S
Zn1336     O1339   1.982   1_545  S
Zn1336     O1341   2.048       .  S
Zn1336     O1343   2.027       .  S
Zn1336     O1347   2.072       .  S
Zn1337     O1339   1.949   1_545  S
Zn1337     O1342   2.002       .  S
Zn1337     O1345   2.007       .  S
Zn1337     O1348   2.015       .  S
Zn1338     O1339   1.919       .  S
Zn1338     O1346   1.981       .  S
Zn1338     O1349   1.964       .  S
Zn1338     O1350   1.983       .  S
O1340      C1352   1.272       .  A
O1341      C1353   1.277       .  A
O1342      C1354   1.273   1_545  A
O1343      C1352   1.276   1_545  A
O1344      C1354   1.277       .  A
O1345      C1353   1.273       .  A
O1346      C1355   1.269       .  A
O1347      C1356   1.279       .  A
O1348      C1355   1.273   1_545  A
O1349      C1356   1.269   1_565  A
O1350      C1357   1.269       .  A
O1351      C1357   1.278       .  A
C1352      C1786   1.474   1_565  S
C1353      C1826   1.485       .  S
C1354      C1617   1.489       .  S
C1355      C2357   1.476       .  S
C1356      C1637   1.489       .  S
C1357      C1666   1.495       .  S
Zn1358     O1362   1.929   1_545  S
Zn1358     O1363   1.991       .  S
Zn1358     O1367   1.983       .  S
Zn1358     O1374   1.968       .  S
Zn1359     O1362   1.967       .  S
Zn1359     O1364   2.026       .  S
Zn1359     O1366   2.060       .  S
Zn1359     O1370   2.009       .  S
Zn1360     O1362   1.959   1_545  S
Zn1360     O1365   2.029       .  S
Zn1360     O1368   2.017       .  S
Zn1360     O1371   2.026       .  S
Zn1361     O1362   1.971       .  S
Zn1361     O1369   2.039       .  S
Zn1361     O1372   2.033       .  S
Zn1361     O1373   2.056       .  S
O1363      C1375   1.269       .  A
O1364      C1376   1.276   1_565  A
O1365      C1377   1.275       .  A
O1366      C1375   1.277   1_565  A
O1367      C1377   1.271       .  A
O1368      C1376   1.275       .  A
O1369      C1378   1.275       .  A
O1370      C1379   1.274       .  A
O1371      C1378   1.274   1_545  A
O1372      C1379   1.278       .  A
O1373      C1380   1.278       .  A
O1374      C1380   1.267   1_545  A
C1375      C1706   1.490       .  S
C1376      C1626   1.484       .  S
C1377      C1797   1.481       .  S
C1378      C2326   1.494       .  S
C1379      C1597   1.478       .  S
C1380      C1646   1.466       .  S
Zn1381     O1385   1.966   1_655  S
Zn1381     O1386   2.029       .  S
Zn1381     O1390   2.018       .  S
Zn1381     O1397   2.048       .  S
Zn1382     O1385   1.950   1_655  S
Zn1382     O1387   1.982       .  S
Zn1382     O1389   2.000       .  S
Zn1382     O1393   2.036       .  S
Zn1383     O1385   1.990       .  S
Zn1383     O1388   2.056       .  S
Zn1383     O1391   2.061       .  S
Zn1383     O1394   2.065       .  S
Zn1384     O1385   1.932       .  S
Zn1384     O1392   1.965       .  S
Zn1384     O1395   2.006       .  S
Zn1384     O1396   1.979       .  S
O1386      C1398   1.275       .  A
O1387      C1399   1.270       .  A
O1388      C1400   1.279   1_455  A
O1389      C1398   1.273       .  A
O1390      C1400   1.274       .  A
O1391      C1399   1.280   1_455  A
O1392      C1401   1.269       .  A
O1393      C1402   1.274   1_655  A
O1394      C1401   1.279       .  A
O1395      C1402   1.270       .  A
O1396      C1403   1.270       .  A
O1397      C1403   1.277   1_655  A
C1398      C1537   1.486       .  S
C1399      C1686   1.488       .  S
C1400      C4806   1.495       .  S
C1401      C1557   1.476       .  S
C1402      C1577   1.486       .  S
C1403      C2186   1.481       .  S
Zn1404     O1408   1.939       .  S
Zn1404     O1409   2.019       .  S
Zn1404     O1413   1.980       .  S
Zn1404     O1420   1.986       .  S
Zn1405     O1408   1.929       .  S
Zn1405     O1410   1.966       .  S
Zn1405     O1412   1.979       .  S
Zn1405     O1416   1.982       .  S
Zn1406     O1408   1.983       .  S
Zn1406     O1411   2.070       .  S
Zn1406     O1414   2.063       .  S
Zn1406     O1417   2.023       .  S
Zn1407     O1408   1.965       .  S
Zn1407     O1415   2.010       .  S
Zn1407     O1418   2.056       .  S
Zn1407     O1419   2.041       .  S
O1409      C1421   1.272       .  A
O1410      C1422   1.269       .  A
O1411      C1423   1.278       .  A
O1412      C1421   1.268       .  A
O1413      C1423   1.269       .  A
O1414      C1422   1.279       .  A
O1415      C1424   1.275       .  A
O1416      C1425   1.269       .  A
O1417      C1424   1.276       .  A
O1418      C1425   1.278       .  A
O1419      C1426   1.277       .  A
O1420      C1426   1.272       .  A
C1421      C1517   1.475       .  S
C1422      C1546   1.478       .  S
C1423      C1766   1.490       .  S
C1424      C4866   1.483       .  S
C1425      C2117   1.481       .  S
C1426      C1566   1.486       .  S
Zn1427     O1431   1.925       .  S
Zn1427     O1432   2.003       .  S
Zn1427     O1436   1.965       .  S
Zn1427     O1443   1.991       .  S
Zn1428     O1431   1.946       .  S
Zn1428     O1433   2.000       .  S
Zn1428     O1435   2.048       .  S
Zn1428     O1439   1.993       .  S
Zn1429     O1431   1.983       .  S
Zn1429     O1434   2.046       .  S
Zn1429     O1437   2.033       .  S
Zn1429     O1440   2.038       .  S
Zn1430     O1431   1.968       .  S
Zn1430     O1438   2.014       .  S
Zn1430     O1441   2.044       .  S
Zn1430     O1442   2.076       .  S
O1432      C1444   1.271       .  A
O1433      C1445   1.272       .  A
O1434      C1446   1.277       .  A
O1435      C1444   1.276       .  A
O1436      C1446   1.268       .  A
O1437      C1445   1.275       .  A
O1438      C1447   1.274       .  A
O1439      C1448   1.272       .  A
O1440      C1447   1.276       .  A
O1441      C1448   1.278       .  A
O1442      C1449   1.280       .  A
O1443      C1449   1.271       .  A
C1444      C2826   1.489       .  S
C1445      C2037   1.483       .  S
C1446      C1497   1.480       .  S
C1447      C1586   1.483       .  S
C1448      C1477   1.483   1_455  S
C1449      C1657   1.494       .  S
Zn1450     O1454   1.921       .  S
Zn1450     O1455   1.994       .  S
Zn1450     O1459   1.967       .  S
Zn1450     O1466   1.969       .  S
Zn1451     O1454   1.927       .  S
Zn1451     O1456   1.965       .  S
Zn1451     O1458   1.994       .  S
Zn1451     O1462   1.967       .  S
Zn1452     O1454   1.986       .  S
Zn1452     O1457   2.071       .  S
Zn1452     O1460   2.072       .  S
Zn1452     O1463   2.030       .  S
Zn1453     O1454   1.969       .  S
Zn1453     O1461   1.988       .  S
Zn1453     O1464   2.033       .  S
Zn1453     O1465   2.053       .  S
O1455      C1467   1.270       .  A
O1456      C1468   1.269       .  A
O1457      C1469   1.280       .  A
O1458      C1467   1.269       .  A
O1459      C1469   1.269       .  A
O1460      C1468   1.279       .  A
O1461      C1470   1.272       .  A
O1462      C1471   1.268       .  A
O1463      C1470   1.276       .  A
O1464      C1471   1.274       .  A
O1465      C1472   1.276       .  A
O1466      C1472   1.267       .  A
C1467      C2766   1.476       .  S
C1468      C2006   1.490       .  S
C1469      C1486   1.488       .  S
C1470      C1526   1.474       .  S
C1471      C1506   1.478       .  S
C1472      C1606   1.486       .  S
C1473      C1474   1.397       .  A
C1473      C1478   1.394       .  A
C1473      H1483   1.084       .  S
C1474      C1479   1.475       .  S
C1474      C1475   1.406       .  A
C1475      C1476   1.403       .  A
C1475      F1480   1.357       .  S
C1476      C1477   1.406       .  A
C1476      H1481   1.083       .  S
C1477      C1478   1.413       .  A
C1478      F1482   1.358       .  S
C1479      C1484   1.398       .  A
C1479      C1488   1.406       .  A
C1484      C1485   1.392       .  A
C1484      F1489   1.358       .  S
C1485      C1486   1.411       .  A
C1485      H1490   1.083       .  S
C1486      C1487   1.409       .  A
C1487      C1488   1.405       .  A
C1487      F1491   1.357       .  S
C1488      H1492   1.083       .  S
C1493      C1494   1.397       .  A
C1493      C1498   1.390       .  A
C1493      H1503   1.084       .  S
C1494      C1499   1.472       .  S
C1494      C1495   1.405       .  A
C1495      C1496   1.401       .  A
C1495      F1500   1.357       .  S
C1496      C1497   1.406       .  A
C1496      H1501   1.083       .  S
C1497      C1498   1.413       .  A
C1498      F1502   1.358       .  S
C1499      C1504   1.401       .  A
C1499      C1508   1.403       .  A
C1504      C1505   1.392       .  A
C1504      F1509   1.358       .  S
C1505      C1506   1.408       .  A
C1505      H1510   1.083       .  S
C1506      C1507   1.408       .  A
C1507      C1508   1.399       .  A
C1507      F1511   1.357       .  S
C1508      H1512   1.083       .  S
C1513      C1514   1.406       .  A
C1513      C1518   1.397       .  A
C1513      H1523   1.083       .  S
C1514      C1519   1.480       .  S
C1514      C1515   1.405       .  A
C1515      C1516   1.394       .  A
C1515      F1520   1.358       .  S
C1516      C1517   1.406       .  A
C1516      H1521   1.083       .  S
C1517      C1518   1.406       .  A
C1518      F1522   1.357       .  S
C1519      C1524   1.404       .  A
C1519      C1528   1.407       .  A
C1524      C1525   1.393       .  A
C1524      F1529   1.358       .  S
C1525      C1526   1.405       .  A
C1525      H1530   1.083       .  S
C1526      C1527   1.405       .  A
C1527      C1528   1.399       .  A
C1527      F1531   1.357       .  S
C1528      H1532   1.082       .  S
C1533      C1534   1.403       .  A
C1533      C1538   1.399       .  A
C1533      H1543   1.083       .  S
C1534      C1539   1.481       .  S
C1534      C1535   1.404       .  A
C1535      C1536   1.396       .  A
C1535      F1540   1.358       .  S
C1536      C1537   1.408       .  A
C1536      H1541   1.083       .  S
C1537      C1538   1.410       .  A
C1538      F1542   1.357       .  S
C1539      C1544   1.403       .  A
C1539      C1548   1.407       .  A
C1544      C1545   1.393       .  A
C1544      F1549   1.358       .  S
C1545      C1546   1.407       .  A
C1545      H1550   1.084       .  S
C1546      C1547   1.405       .  A
C1547      C1548   1.403       .  A
C1547      F1551   1.357       .  S
C1548      H1552   1.083       .  S
C1553      C1554   1.408       .  A
C1553      C1558   1.404       .  A
C1553      H1563   1.083       .  S
C1554      C1559   1.482       .  S
C1554      C1555   1.405       .  A
C1555      C1556   1.392       .  A
C1555      F1560   1.358       .  S
C1556      C1557   1.405       .  A
C1556      H1561   1.084       .  S
C1557      C1558   1.405       .  A
C1558      F1562   1.357       .  S
C1559      C1564   1.404       .  A
C1559      C1568   1.405       .  A
C1564      C1565   1.393       .  A
C1564      F1569   1.358       .  S
C1565      C1566   1.408       .  A
C1565      H1570   1.083       .  S
C1566      C1567   1.410       .  A
C1567      C1568   1.402       .  A
C1567      F1571   1.357       .  S
C1568      H1572   1.083       .  S
C1573      C1574   1.405       .  A
C1573      C1578   1.400       .  A
C1573      H1583   1.083       .  S
C1574      C1579   1.492       .  S
C1574      C1575   1.410       .  A
C1575      C1576   1.400       .  A
C1575      F1580   1.357       .  S
C1576      C1577   1.404       .  A
C1576      H1581   1.083       .  S
C1577      C1578   1.410       .  A
C1578      F1582   1.358       .  S
C1579      C1584   1.411       .  A
C1579      C1588   1.404       .  A
C1584      C1585   1.403       .  A
C1584      F1589   1.357       .  S
C1585      C1586   1.404       .  A
C1585      H1590   1.083       .  S
C1586      C1587   1.409       .  A
C1587      C1588   1.398       .  A
C1587      F1591   1.358       .  S
C1588      H1592   1.083       .  S
C1593      C1594   1.406       .  A
C1593      C1598   1.397       .  A
C1593      H1603   1.083       .  S
C1594      C1599   1.484       .  S
C1594      C1595   1.407       .  A
C1595      C1596   1.399       .  A
C1595      F1600   1.357       .  S
C1596      C1597   1.405       .  A
C1596      H1601   1.083       .  S
C1597      C1598   1.407       .  A
C1598      F1602   1.358       .  S
C1599      C1604   1.409       .  A
C1599      C1608   1.400       .  A
C1604      C1605   1.404       .  A
C1604      F1609   1.357       .  S
C1605      C1606   1.407       .  A
C1605      H1610   1.082       .  S
C1606      C1607   1.414       .  A
C1607      C1608   1.391       .  A
C1607      F1611   1.358       .  S
C1608      H1612   1.083       .  S
C1613      C1614   1.406   1_565  A
C1613      C1618   1.401       .  A
C1613      H1623   1.083       .  S
C1614      C1619   1.489       .  S
C1614      C1615   1.407       .  A
C1615      C1616   1.397       .  A
C1615      F1620   1.358       .  S
C1616      C1617   1.408   1_545  A
C1616      H1621   1.083       .  S
C1617      C1618   1.410       .  A
C1618      F1622   1.357       .  S
C1619      C1624   1.409       .  A
C1619      C1628   1.405       .  A
C1624      C1625   1.400       .  A
C1624      F1629   1.357       .  S
C1625      C1626   1.406       .  A
C1625      H1630   1.083       .  S
C1626      C1627   1.409       .  A
C1627      C1628   1.397       .  A
C1627      F1631   1.358       .  S
C1628      H1632   1.083       .  S
C1633      C1634   1.409   1_545  A
C1633      C1638   1.406       .  A
C1633      H1643   1.083       .  S
C1634      C1639   1.485   1_455  S
C1634      C1635   1.401       .  A
C1635      C1636   1.391       .  A
C1635      F1640   1.358       .  S
C1636      C1637   1.410   1_565  A
C1636      H1641   1.083       .  S
C1637      C1638   1.409       .  A
C1638      F1642   1.357       .  S
C1639      C1644   1.407       .  A
C1639      C1648   1.407       .  A
C1644      C1645   1.400       .  A
C1644      F1649   1.357       .  S
C1645      C1646   1.404       .  A
C1645      H1650   1.084       .  S
C1646      C1647   1.401       .  A
C1647      C1648   1.397       .  A
C1647      F1651   1.358       .  S
C1648      H1652   1.083       .  S
C1653      C1654   1.406       .  A
C1653      C1658   1.408       .  A
C1653      H1663   1.083       .  S
C1654      C1659   1.486       .  S
C1654      C1655   1.403       .  A
C1655      C1656   1.397       .  A
C1655      F1660   1.358       .  S
C1656      C1657   1.410       .  A
C1656      H1661   1.083       .  S
C1657      C1658   1.411       .  A
C1658      F1662   1.357       .  S
C1659      C1664   1.401       .  A
C1659      C1668   1.407       .  A
C1664      C1665   1.395       .  A
C1664      F1669   1.358       .  S
C1665      C1666   1.410       .  A
C1665      H1670   1.083       .  S
C1666      C1667   1.412       .  A
C1667      C1668   1.410       .  A
C1667      F1671   1.357       .  S
C1668      H1672   1.083       .  S
C1673      C1674   1.404       .  A
C1673      C1678   1.398       .  A
C1673      H1683   1.084       .  S
C1674      C1679   1.488       .  S
C1674      C1675   1.410       .  A
C1675      C1676   1.400       .  A
C1675      F1680   1.358       .  S
C1676      C1677   1.404       .  A
C1676      H1681   1.084       .  S
C1677      C1678   1.407       .  A
C1678      F1682   1.357       .  S
C1679      C1684   1.410       .  A
C1679      C1688   1.401       .  A
C1684      C1685   1.403       .  A
C1684      F1689   1.357       .  S
C1685      C1686   1.406       .  A
C1685      H1690   1.083   1_655  S
C1686      C1687   1.414       .  A
C1687      C1688   1.394       .  A
C1687      F1691   1.358       .  S
C1688      H1692   1.083       .  S
C1693      C1694   1.408       .  A
C1693      C1698   1.404       .  A
C1693      H1703   1.084       .  S
C1694      C1699   1.491       .  S
C1694      C1695   1.405   1_545  A
C1695      C1696   1.397       .  A
C1695      F1700   1.357       .  S
C1696      C1697   1.408   1_565  A
C1696      H1701   1.083       .  S
C1697      C1698   1.411       .  A
C1698      F1702   1.357       .  S
C1699      C1704   1.410   1_545  A
C1699      C1708   1.403       .  A
C1704      C1705   1.403       .  A
C1704      F1709   1.357       .  S
C1705      C1706   1.405   1_565  A
C1705      H1710   1.082       .  S
C1706      C1707   1.414       .  A
C1707      C1708   1.399       .  A
C1707      F1711   1.358       .  S
C1708      H1712   1.083       .  S
C1713      C1714   1.408       .  A
C1713      C1718   1.402       .  A
C1713      H1723   1.083       .  S
C1714      C1719   1.485       .  S
C1714      C1715   1.406   1_565  A
C1715      C1716   1.391       .  A
C1715      F1720   1.358       .  S
C1716      C1717   1.405   1_545  A
C1716      H1721   1.083       .  S
C1717      C1718   1.407       .  A
C1718      F1722   1.357       .  S
C1719      C1724   1.407       .  A
C1719      C1728   1.404   1_565  A
C1724      C1725   1.399       .  A
C1724      F1729   1.357       .  S
C1725      C1726   1.408   1_565  A
C1725      H1730   1.083       .  S
C1726      C1727   1.409       .  A
C1727      C1728   1.394       .  A
C1727      F1731   1.358       .  S
C1728      H1732   1.083       .  S
C1733      C1734   1.399       .  A
C1733      C1738   1.392       .  A
C1733      H1743   1.083       .  S
C1734      C1739   1.477       .  S
C1734      C1735   1.410   1_565  A
C1735      C1736   1.402       .  A
C1735      F1740   1.357       .  S
C1736      C1737   1.402   1_545  A
C1736      H1741   1.083       .  S
C1737      C1738   1.409       .  A
C1738      F1742   1.358       .  S
C1739      C1744   1.409       .  A
C1739      C1748   1.398       .  A
C1744      C1745   1.402       .  A
C1744      F1749   1.357       .  S
C1745      C1746   1.404       .  A
C1745      H1750   1.082       .  S
C1746      C1747   1.412       .  A
C1747      C1748   1.393       .  A
C1747      F1751   1.358   1_565  S
C1748      H1752   1.083   1_565  S
C1753      C1754   1.407       .  A
C1753      C1758   1.407       .  A
C1753      H1763   1.083       .  S
C1754      C1759   1.489       .  S
C1754      C1755   1.405       .  A
C1755      C1756   1.395       .  A
C1755      F1760   1.358       .  S
C1756      C1757   1.408       .  A
C1756      H1761   1.083       .  S
C1757      C1758   1.412       .  A
C1758      F1762   1.357       .  S
C1759      C1764   1.409       .  A
C1759      C1768   1.401       .  A
C1764      C1765   1.408       .  A
C1764      F1769   1.357       .  S
C1765      C1766   1.408       .  A
C1765      H1770   1.083       .  S
C1766      C1767   1.412       .  A
C1767      C1768   1.394       .  A
C1767      F1771   1.358       .  S
C1768      H1772   1.084       .  S
C1773      C1774   1.401       .  A
C1773      C1778   1.395       .  A
C1773      H1783   1.084       .  S
C1774      C1779   1.480       .  S
C1774      C1775   1.408   1_545  A
C1775      C1776   1.398       .  A
C1775      F1780   1.357       .  S
C1776      C1777   1.403   1_565  A
C1776      H1781   1.084       .  S
C1777      C1778   1.411       .  A
C1778      F1782   1.358       .  S
C1779      C1784   1.409       .  A
C1779      C1788   1.401   1_545  A
C1784      C1785   1.399       .  A
C1784      F1789   1.357       .  S
C1785      C1786   1.403       .  A
C1785      H1790   1.083       .  S
C1786      C1787   1.409   1_545  A
C1787      C1788   1.393       .  A
C1787      F1791   1.358       .  S
C1788      H1792   1.083       .  S
C1793      C1794   1.407       .  A
C1793      C1798   1.400       .  A
C1793      H1803   1.083       .  S
C1794      C1799   1.482       .  S
C1794      C1795   1.403       .  A
C1795      C1796   1.392       .  A
C1795      F1800   1.358       .  S
C1796      C1797   1.407       .  A
C1796      H1801   1.083       .  S
C1797      C1798   1.409       .  A
C1798      F1802   1.357       .  S
C1799      C1804   1.405       .  A
C1799      C1808   1.406       .  A
C1804      C1805   1.396       .  A
C1804      F1809   1.358       .  S
C1805      C1806   1.407       .  A
C1805      H1810   1.083       .  S
C1806      C1807   1.405       .  A
C1807      C1808   1.397       .  A
C1807      F1811   1.357       .  S
C1808      H1812   1.083       .  S
C1813      C1814   1.406       .  A
C1813      C1818   1.405       .  A
C1813      H1823   1.083       .  S
C1814      C1819   1.482       .  S
C1814      C1815   1.401       .  A
C1815      C1816   1.395       .  A
C1815      F1820   1.358       .  S
C1816      C1817   1.410       .  A
C1816      H1821   1.083       .  S
C1817      C1818   1.410       .  A
C1818      F1822   1.357       .  S
C1819      C1824   1.405       .  A
C1819      C1828   1.403       .  A
C1824      C1825   1.398       .  A
C1824      F1829   1.358       .  S
C1825      C1826   1.407       .  A
C1825      H1830   1.083       .  S
C1826      C1827   1.410       .  A
C1827      C1828   1.403       .  A
C1827      F1831   1.357       .  S
C1828      H1832   1.083       .  S
C1833      C1834   1.398       .  A
C1833      C1838   1.390       .  A
C1833      H1843   1.084       .  S
C1834      C1839   1.477       .  S
C1834      C1835   1.408       .  A
C1835      C1836   1.405       .  A
C1835      F1840   1.357       .  S
C1836      C1837   1.405       .  A
C1836      H1841   1.083       .  S
C1837      C1838   1.412       .  A
C1838      F1842   1.358       .  S
C1839      C1844   1.403       .  A
C1839      C1848   1.404       .  A
C1844      C1845   1.393       .  A
C1844      F1849   1.358       .  S
C1845      C1846   1.408       .  A
C1845      H1850   1.083       .  S
C1846      C1847   1.410       .  A
C1847      C1848   1.401       .  A
C1847      F1851   1.357       .  S
C1848      H1852   1.083       .  S
C1853      C1854   1.405       .  A
C1853      C1858   1.406       .  A
C1853      H1863   1.083       .  S
C1854      C1859   1.474       .  S
C1854      C1855   1.398       .  A
C1855      C1856   1.390       .  A
C1855      F1860   1.358       .  S
C1856      C1857   1.410       .  A
C1856      H1861   1.083       .  S
C1857      C1858   1.410       .  A
C1858      F1862   1.357       .  S
C1859      C1864   1.404       .  A
C1859      C1868   1.400       .  A
C1864      C1865   1.402       .  A
C1864      F1869   1.357       .  S
C1865      C1866   1.408       .  A
C1865      H1870   1.083       .  S
C1866      C1867   1.410       .  A
C1867      C1868   1.394       .  A
C1867      F1871   1.358       .  S
C1868      H1872   1.083       .  S
C1873      C1874   1.406       .  A
C1873      C1878   1.397       .  A
C1873      H1883   1.083       .  S
C1874      C1879   1.484       .  S
C1874      C1875   1.405       .  A
C1875      C1876   1.400       .  A
C1875      F1880   1.358       .  S
C1876      C1877   1.409       .  A
C1876      H1881   1.083       .  S
C1877      C1878   1.406       .  A
C1878      F1882   1.357       .  S
C1879      C1884   1.404       .  A
C1879      C1888   1.408       .  A
C1884      C1885   1.393       .  A
C1884      F1889   1.358       .  S
C1885      C1886   1.407       .  A
C1885      H1890   1.083       .  S
C1886      C1887   1.406       .  A
C1887      C1888   1.403       .  A
C1887      F1891   1.357       .  S
C1888      H1892   1.082       .  S
C1893      C1894   1.402       .  A
C1893      C1898   1.395       .  A
C1893      H1903   1.084       .  S
C1894      C1899   1.482       .  S
C1894      C1895   1.409       .  A
C1895      C1896   1.398       .  A
C1895      F1900   1.358       .  S
C1896      C1897   1.403       .  A
C1896      H1901   1.084       .  S
C1897      C1898   1.409       .  A
C1898      F1902   1.358       .  S
C1899      C1904   1.410       .  A
C1899      C1908   1.401       .  A
C1904      C1905   1.401       .  A
C1904      F1909   1.357       .  S
C1905      C1906   1.403       .  A
C1905      H1910   1.083       .  S
C1906      C1907   1.409       .  A
C1907      C1908   1.393       .  A
C1907      F1911   1.358       .  S
C1908      H1912   1.083       .  S
C1913      C1914   1.403       .  A
C1913      C1918   1.398       .  A
C1913      H1923   1.083       .  S
C1914      C1919   1.483       .  S
C1914      C1915   1.408       .  A
C1915      C1916   1.399       .  A
C1915      F1920   1.358       .  S
C1916      C1917   1.405       .  A
C1916      H1921   1.084       .  S
C1917      C1918   1.409       .  A
C1918      F1922   1.357       .  S
C1919      C1924   1.408       .  A
C1919      C1928   1.400       .  A
C1924      C1925   1.403       .  A
C1924      F1929   1.357       .  S
C1925      C1926   1.407       .  A
C1925      H1930   1.083       .  S
C1926      C1927   1.413       .  A
C1927      C1928   1.394       .  A
C1927      F1931   1.358       .  S
C1928      H1932   1.083       .  S
C1933      C1934   1.405       .  A
C1933      C1938   1.397       .  A
C1933      H1943   1.083       .  S
C1934      C1939   1.485       .  S
C1934      C1935   1.407       .  A
C1935      C1936   1.400       .  A
C1935      F1940   1.358       .  S
C1936      C1937   1.406       .  A
C1936      H1941   1.083       .  S
C1937      C1938   1.406       .  A
C1938      F1942   1.357       .  S
C1939      C1944   1.408       .  A
C1939      C1948   1.402       .  A
C1944      C1945   1.399       .  A
C1944      F1949   1.357       .  S
C1945      C1946   1.405       .  A
C1945      H1950   1.083       .  S
C1946      C1947   1.413       .  A
C1947      C1948   1.397       .  A
C1947      F1951   1.358       .  S
C1948      H1952   1.083       .  S
C1953      C1954   1.399       .  A
C1953      C1958   1.394       .  A
C1953      H1963   1.084       .  S
C1954      C1959   1.483   1_455  S
C1954      C1955   1.410       .  A
C1955      C1956   1.404       .  A
C1955      F1960   1.357       .  S
C1956      C1957   1.406       .  A
C1956      H1961   1.083       .  S
C1957      C1958   1.413       .  A
C1958      F1962   1.358       .  S
C1959      C1964   1.400       .  A
C1959      C1968   1.409       .  A
C1964      C1965   1.394       .  A
C1964      F1969   1.358       .  S
C1965      C1966   1.412       .  A
C1965      H1970   1.083       .  S
C1966      C1967   1.406       .  A
C1967      C1968   1.405       .  A
C1967      F1971   1.357       .  S
C1968      H1972   1.083       .  S
C1973      C1974   1.399       .  A
C1973      C1978   1.397       .  A
C1973      H1983   1.084       .  S
C1974      C1979   1.475       .  S
C1974      C1975   1.404       .  A
C1975      C1976   1.402       .  A
C1975      F1980   1.357       .  S
C1976      C1977   1.405       .  A
C1976      H1981   1.083       .  S
C1977      C1978   1.413       .  A
C1978      F1982   1.358       .  S
C1979      C1984   1.402       .  A
C1979      C1988   1.401       .  A
C1984      C1985   1.398       .  A
C1984      F1989   1.357       .  S
C1985      C1986   1.408       .  A
C1985      H1990   1.083       .  S
C1986      C1987   1.411       .  A
C1987      C1988   1.401       .  A
C1987      F1991   1.357       .  S
C1988      H1992   1.083       .  S
C1993      C1994   1.406       .  A
C1993      C1998   1.406       .  A
C1993      H2003   1.083       .  S
C1994      C1999   1.482       .  S
C1994      C1995   1.405       .  A
C1995      C1996   1.392       .  A
C1995      F2000   1.358       .  S
C1996      C1997   1.405       .  A
C1996      H2001   1.084       .  S
C1997      C1998   1.410       .  A
C1998      F2002   1.357       .  S
C1999      C2004   1.401       .  A
C1999      C2008   1.407       .  A
C2004      C2005   1.391       .  A
C2004      F2009   1.358       .  S
C2005      C2006   1.410       .  A
C2005      H2010   1.083       .  S
C2006      C2007   1.410       .  A
C2007      C2008   1.407       .  A
C2007      F2011   1.357       .  S
C2008      H2012   1.083       .  S
C2013      C2014   1.405       .  A
C2013      C2018   1.395       .  A
C2013      H2023   1.084       .  S
C2014      C2019   1.486       .  S
C2014      C2015   1.408       .  A
C2015      C2016   1.403       .  A
C2015      F2020   1.357       .  S
C2016      C2017   1.406       .  A
C2016      H2021   1.084       .  S
C2017      C2018   1.406       .  A
C2018      F2022   1.358       .  S
C2019      C2024   1.410       .  A
C2019      C2028   1.400       .  A
C2024      C2025   1.406       .  A
C2024      F2029   1.357       .  S
C2025      C2026   1.407       .  A
C2025      H2030   1.083       .  S
C2026      C2027   1.413       .  A
C2027      C2028   1.392       .  A
C2027      F2031   1.358       .  S
C2028      H2032   1.084       .  S
C2033      C2034   1.401       .  A
C2033      C2038   1.395       .  A
C2033      H2043   1.084       .  S
C2034      C2039   1.482       .  S
C2034      C2035   1.408       .  A
C2035      C2036   1.401       .  A
C2035      F2040   1.358       .  S
C2036      C2037   1.406       .  A
C2036      H2041   1.084       .  S
C2037      C2038   1.410       .  A
C2038      F2042   1.358       .  S
C2039      C2044   1.408       .  A
C2039      C2048   1.401       .  A
C2044      C2045   1.400       .  A
C2044      F2049   1.357   1_455  S
C2045      C2046   1.404       .  A
C2045      H2050   1.084   1_455  S
C2046      C2047   1.411       .  A
C2047      C2048   1.396       .  A
C2047      F2051   1.358       .  S
C2048      H2052   1.084       .  S
C2053      C2054   1.405       .  A
C2053      C2058   1.400       .  A
C2053      H2063   1.083       .  S
C2054      C2059   1.473       .  S
C2054      C2055   1.400       .  A
C2055      C2056   1.393       .  A
C2055      F2060   1.358       .  S
C2056      C2057   1.409       .  A
C2056      H2061   1.083       .  S
C2057      C2058   1.406       .  A
C2058      F2062   1.357       .  S
C2059      C2064   1.403       .  A
C2059      C2068   1.400       .  A
C2064      C2065   1.397       .  A
C2064      F2069   1.357       .  S
C2065      C2066   1.406       .  A
C2065      H2070   1.083       .  S
C2066      C2067   1.412       .  A
C2067      C2068   1.396       .  A
C2067      F2071   1.358       .  S
C2068      H2072   1.084       .  S
C2073      C2074   1.399       .  A
C2073      C2078   1.391       .  A
C2073      H2083   1.083       .  S
C2074      C2079   1.479       .  S
C2074      C2075   1.407       .  A
C2075      C2076   1.404       .  A
C2075      F2080   1.357       .  S
C2076      C2077   1.405       .  A
C2076      H2081   1.082       .  S
C2077      C2078   1.412       .  A
C2078      F2082   1.358       .  S
C2079      C2084   1.403       .  A
C2079      C2088   1.404       .  A
C2084      C2085   1.393       .  A
C2084      F2089   1.358       .  S
C2085      C2086   1.409       .  A
C2085      H2090   1.083       .  S
C2086      C2087   1.410       .  A
C2087      C2088   1.402       .  A
C2087      F2091   1.357       .  S
C2088      H2092   1.083       .  S
C2093      C2094   1.399       .  A
C2093      C2098   1.392       .  A
C2093      H2103   1.084       .  S
C2094      C2099   1.477       .  S
C2094      C2095   1.405       .  A
C2095      C2096   1.404       .  A
C2095      F2100   1.357       .  S
C2096      C2097   1.408       .  A
C2096      H2101   1.083       .  S
C2097      C2098   1.411       .  A
C2098      F2102   1.358       .  S
C2099      C2104   1.406       .  A
C2099      C2108   1.397       .  A
C2104      C2105   1.405       .  A
C2104      F2109   1.357       .  S
C2105      C2106   1.409       .  A
C2105      H2110   1.083       .  S
C2106      C2107   1.414       .  A
C2107      C2108   1.390       .  A
C2107      F2111   1.358       .  S
C2108      H2112   1.084       .  S
C2113      C2114   1.402       .  A
C2113      C2118   1.398       .  A
C2113      H2123   1.083       .  S
C2114      C2119   1.486       .  S
C2114      C2115   1.410       .  A
C2115      C2116   1.400       .  A
C2115      F2120   1.357       .  S
C2116      C2117   1.403       .  A
C2116      H2121   1.083       .  S
C2117      C2118   1.410       .  A
C2118      F2122   1.358       .  S
C2119      C2124   1.403       .  A
C2119      C2128   1.408       .  A
C2124      C2125   1.393       .  A
C2124      F2129   1.358       .  S
C2125      C2126   1.408       .  A
C2125      H2130   1.083       .  S
C2126      C2127   1.408       .  A
C2127      C2128   1.404       .  A
C2127      F2131   1.357       .  S
C2128      H2132   1.083       .  S
C2133      C2134   1.400       .  A
C2133      C2138   1.396       .  A
C2133      H2143   1.083       .  S
C2134      C2139   1.489       .  S
C2134      C2135   1.410       .  A
C2135      C2136   1.405       .  A
C2135      F2140   1.357       .  S
C2136      C2137   1.407       .  A
C2136      H2141   1.083       .  S
C2137      C2138   1.413       .  A
C2138      F2142   1.358       .  S
C2139      C2144   1.412       .  A
C2139      C2148   1.400       .  A
C2144      C2145   1.406       .  A
C2144      F2149   1.358       .  S
C2145      C2146   1.404       .  A
C2145      H2150   1.082       .  S
C2146      C2147   1.413       .  A
C2147      C2148   1.397       .  A
C2147      F2151   1.358       .  S
C2148      H2152   1.083       .  S
C2153      C2154   1.404       .  A
C2153      C2158   1.402       .  A
C2153      H2163   1.084       .  S
C2154      C2159   1.480       .  S
C2154      C2155   1.403       .  A
C2155      C2156   1.393       .  A
C2155      F2160   1.358       .  S
C2156      C2157   1.407       .  A
C2156      H2161   1.084       .  S
C2157      C2158   1.411       .  A
C2158      F2162   1.357       .  S
C2159      C2164   1.406       .  A
C2159      C2168   1.402       .  A
C2164      C2165   1.400       .  A
C2164      F2169   1.357       .  S
C2165      C2166   1.405       .  A
C2165      H2170   1.083       .  S
C2166      C2167   1.409       .  A
C2167      C2168   1.395       .  A
C2167      F2171   1.358       .  S
C2168      H2172   1.083       .  S
C2173      C2174   1.405       .  A
C2173      C2178   1.400       .  A
C2173      H2183   1.083       .  S
C2174      C2179   1.481       .  S
C2174      C2175   1.403       .  A
C2175      C2176   1.396       .  A
C2175      F2180   1.358       .  S
C2176      C2177   1.408       .  A
C2176      H2181   1.083       .  S
C2177      C2178   1.409       .  A
C2178      F2182   1.357       .  S
C2179      C2184   1.403       .  A
C2179      C2188   1.407       .  A
C2184      C2185   1.395       .  A
C2184      F2189   1.358       .  S
C2185      C2186   1.408       .  A
C2185      H2190   1.083       .  S
C2186      C2187   1.407       .  A
C2187      C2188   1.401       .  A
C2187      F2191   1.357   1_455  S
C2188      H2192   1.083   1_455  S
C2193      C2194   1.401       .  A
C2193      C2198   1.399       .  A
C2193      H2203   1.083       .  S
C2194      C2199   1.471       .  S
C2194      C2195   1.401       .  A
C2195      C2196   1.394       .  A
C2195      F2200   1.358       .  S
C2196      C2197   1.408       .  A
C2196      H2201   1.083       .  S
C2197      C2198   1.412       .  A
C2198      F2202   1.357       .  S
C2199      C2204   1.405       .  A
C2199      C2208   1.396       .  A
C2204      C2205   1.400       .  A
C2204      F2209   1.357       .  S
C2205      C2206   1.405       .  A
C2205      H2210   1.083       .  S
C2206      C2207   1.415       .  A
C2207      C2208   1.393       .  A
C2207      F2211   1.358       .  S
C2208      H2212   1.084       .  S
C2213      C2214   1.400       .  A
C2213      C2218   1.389       .  A
C2213      H2223   1.084       .  S
C2214      C2219   1.483       .  S
C2214      C2215   1.409       .  A
C2215      C2216   1.404       .  A
C2215      F2220   1.357       .  S
C2216      C2217   1.405       .  A
C2216      H2221   1.083       .  S
C2217      C2218   1.410       .  A
C2218      F2222   1.358       .  S
C2219      C2224   1.405       .  A
C2219      C2228   1.405       .  A
C2224      C2225   1.392       .  A
C2224      F2229   1.358       .  S
C2225      C2226   1.407       .  A
C2225      H2230   1.083       .  S
C2226      C2227   1.411       .  A
C2227      C2228   1.402       .  A
C2227      F2231   1.357       .  S
C2228      H2232   1.083       .  S
C2233      C2234   1.398       .  A
C2233      C2238   1.392       .  A
C2233      H2243   1.085       .  S
C2234      C2239   1.479       .  S
C2234      C2235   1.408       .  A
C2235      C2236   1.403       .  A
C2235      F2240   1.357       .  S
C2236      C2237   1.407       .  A
C2236      H2241   1.084       .  S
C2237      C2238   1.415       .  A
C2238      F2242   1.358       .  S
C2239      C2244   1.409       .  A
C2239      C2248   1.399       .  A
C2244      C2245   1.401       .  A
C2244      F2249   1.357       .  S
C2245      C2246   1.404       .  A
C2245      H2250   1.084       .  S
C2246      C2247   1.412       .  A
C2247      C2248   1.394       .  A
C2247      F2251   1.358       .  S
C2248      H2252   1.085       .  S
C2253      C2254   1.406       .  A
C2253      C2258   1.404       .  A
C2253      H2263   1.084       .  S
C2254      C2259   1.492       .  S
C2254      C2255   1.407       .  A
C2255      C2256   1.400       .  A
C2255      F2260   1.357       .  S
C2256      C2257   1.407       .  A
C2256      H2261   1.084       .  S
C2257      C2258   1.410       .  A
C2258      F2262   1.357   1_455  S
C2259      C2264   1.408       .  A
C2259      C2268   1.404       .  A
C2264      C2265   1.404       .  A
C2264      F2269   1.357       .  S
C2265      C2266   1.408       .  A
C2265      H2270   1.082       .  S
C2266      C2267   1.414       .  A
C2267      C2268   1.401       .  A
C2267      F2271   1.358       .  S
C2268      H2272   1.083       .  S
C2273      C2274   1.401       .  A
C2273      C2278   1.394       .  A
C2273      H2283   1.083       .  S
C2274      C2279   1.481       .  S
C2274      C2275   1.409   1_545  A
C2275      C2276   1.400       .  A
C2275      F2280   1.357       .  S
C2276      C2277   1.403       .  A
C2276      H2281   1.083       .  S
C2277      C2278   1.409   1_565  A
C2278      F2282   1.358       .  S
C2279      C2284   1.406       .  A
C2279      C2288   1.404       .  A
C2284      C2285   1.396       .  A
C2284      F2289   1.358       .  S
C2285      C2286   1.406       .  A
C2285      H2290   1.083       .  S
C2286      C2287   1.408       .  A
C2287      C2288   1.397       .  A
C2287      F2291   1.358       .  S
C2288      H2292   1.083   1_545  S
C2293      C2294   1.411       .  A
C2293      C2298   1.405       .  A
C2293      H2303   1.083       .  S
C2294      C2299   1.488   1_545  S
C2294      C2295   1.403   1_545  A
C2295      C2296   1.394       .  A
C2295      F2300   1.358       .  S
C2296      C2297   1.409   1_565  A
C2296      H2301   1.084       .  S
C2297      C2298   1.405       .  A
C2298      F2302   1.357       .  S
C2299      C2304   1.402   1_565  A
C2299      C2308   1.411       .  A
C2304      C2305   1.393       .  A
C2304      F2309   1.358       .  S
C2305      C2306   1.411   1_545  A
C2305      H2310   1.083       .  S
C2306      C2307   1.407       .  A
C2307      C2308   1.405       .  A
C2307      F2311   1.357       .  S
C2308      H2312   1.083       .  S
C2313      C2314   1.407       .  A
C2313      C2318   1.402       .  A
C2313      H2323   1.082       .  S
C2314      C2319   1.494   1_556  S
C2314      C2315   1.410   1_565  A
C2315      C2316   1.402       .  A
C2315      F2320   1.357       .  S
C2316      C2317   1.406   1_545  A
C2316      H2321   1.083       .  S
C2317      C2318   1.409       .  A
C2318      F2322   1.357       .  S
C2319      C2324   1.409       .  A
C2319      C2328   1.406   1_565  A
C2324      C2325   1.402       .  A
C2324      F2329   1.357       .  S
C2325      C2326   1.408       .  A
C2325      H2330   1.082       .  S
C2326      C2327   1.412   1_565  A
C2327      C2328   1.402       .  A
C2327      F2331   1.357       .  S
C2328      H2332   1.082       .  S
C2333      C2334   1.410       .  A
C2333      C2338   1.408       .  A
C2333      H2343   1.082       .  S
C2334      C2339   1.498       .  S
C2334      C2335   1.407   1_565  A
C2335      C2336   1.399       .  A
C2335      F2340   1.357       .  S
C2336      C2337   1.409   1_545  A
C2336      H2341   1.082       .  S
C2337      C2338   1.411       .  A
C2338      F2342   1.357       .  S
C2339      C2344   1.408       .  A
C2339      C2348   1.409   1_565  A
C2344      C2345   1.403       .  A
C2344      F2349   1.357       .  S
C2345      C2346   1.410       .  A
C2345      H2350   1.083       .  S
C2346      C2347   1.408   1_565  A
C2347      C2348   1.403       .  A
C2347      F2351   1.357       .  S
C2348      H2352   1.082       .  S
C2353      C2354   1.399       .  A
C2353      C2358   1.393       .  A
C2353      H2363   1.083       .  S
C2354      C2359   1.469   1_554  S
C2354      C2355   1.403   1_565  A
C2355      C2356   1.396       .  A
C2355      F2360   1.357       .  S
C2356      C2357   1.406   1_545  A
C2356      H2361   1.083       .  S
C2357      C2358   1.411       .  A
C2358      F2362   1.358       .  S
C2359      C2364   1.402       .  A
C2359      C2368   1.400   1_565  A
C2364      C2365   1.394       .  A
C2364      F2369   1.358       .  S
C2365      C2366   1.408       .  A
C2365      H2370   1.083       .  S
C2366      C2367   1.410   1_565  A
C2367      C2368   1.394       .  A
C2367      F2371   1.357       .  S
C2368      H2372   1.083       .  S
C2373      C2374   1.405   1_565  A
C2373      C2378   1.401       .  A
C2373      H2383   1.083       .  S
C2374      C2379   1.488   1_655  S
C2374      C2375   1.407       .  A
C2375      C2376   1.397       .  A
C2375      F2380   1.358       .  S
C2376      C2377   1.407   1_545  A
C2376      H2381   1.083       .  S
C2377      C2378   1.412       .  A
C2378      F2382   1.357       .  S
C2379      C2384   1.411       .  A
C2379      C2388   1.402       .  A
C2384      C2385   1.405       .  A
C2384      F2389   1.357       .  S
C2385      C2386   1.404       .  A
C2385      H2390   1.083       .  S
C2386      C2387   1.408       .  A
C2387      C2388   1.392       .  A
C2387      F2391   1.358       .  S
C2388      H2392   1.083   1_545  S
C2393      C2394   1.399       .  A
C2393      C2398   1.394       .  A
C2393      H2403   1.084       .  S
C2394      C2399   1.482       .  S
C2394      C2395   1.409   1_565  A
C2395      C2396   1.404       .  A
C2395      F2400   1.357       .  S
C2396      C2397   1.404   1_545  A
C2396      H2401   1.083       .  S
C2397      C2398   1.411       .  A
C2398      F2402   1.358       .  S
C2399      C2404   1.403   1_565  A
C2399      C2408   1.404       .  A
C2404      C2405   1.397       .  A
C2404      F2409   1.358       .  S
C2405      C2406   1.409   1_545  A
C2405      H2410   1.082       .  S
C2406      C2407   1.411       .  A
C2407      C2408   1.401       .  A
C2407      F2411   1.357       .  S
C2408      H2412   1.082       .  S
C2413      C2414   1.398   1_565  A
C2413      C2418   1.392       .  A
C2413      H2423   1.083       .  S
C2414      C2419   1.467       .  S
C2414      C2415   1.404       .  A
C2415      C2416   1.394       .  A
C2415      F2420   1.358       .  S
C2416      C2417   1.405   1_545  A
C2416      H2421   1.083       .  S
C2417      C2418   1.412       .  A
C2418      F2422   1.358       .  S
C2419      C2424   1.400   1_545  A
C2419      C2428   1.404       .  A
C2424      C2425   1.387       .  A
C2424      F2429   1.358       .  S
C2425      C2426   1.406   1_565  A
C2425      H2430   1.084       .  S
C2426      C2427   1.407       .  A
C2427      C2428   1.399       .  A
C2427      F2431   1.357       .  S
C2428      H2432   1.084       .  S
C2433      C2434   1.407       .  A
C2433      C2438   1.400       .  A
C2433      H2443   1.083       .  S
C2434      C2439   1.483       .  S
C2434      C2435   1.406       .  A
C2435      C2436   1.397       .  A
C2435      F2440   1.357       .  S
C2436      C2437   1.405       .  A
C2436      H2441   1.083       .  S
C2437      C2438   1.405       .  A
C2438      F2442   1.357       .  S
C2439      C2444   1.409       .  A
C2439      C2448   1.399       .  A
C2444      C2445   1.403       .  A
C2444      F2449   1.357       .  S
C2445      C2446   1.406       .  A
C2445      H2450   1.082       .  S
C2446      C2447   1.415       .  A
C2447      C2448   1.393       .  A
C2447      F2451   1.358       .  S
C2448      H2452   1.083       .  S
C2453      C2454   1.406       .  A
C2453      C2458   1.398       .  A
C2453      H2463   1.083       .  S
C2454      C2459   1.483       .  S
C2454      C2455   1.406       .  A
C2455      C2456   1.395       .  A
C2455      F2460   1.358       .  S
C2456      C2457   1.407       .  A
C2456      H2461   1.083       .  S
C2457      C2458   1.407       .  A
C2458      F2462   1.357       .  S
C2459      C2464   1.408       .  A
C2459      C2468   1.405       .  A
C2464      C2465   1.397       .  A
C2464      F2469   1.358       .  S
C2465      C2466   1.404       .  A
C2465      H2470   1.083       .  S
C2466      C2467   1.406       .  A
C2467      C2468   1.397       .  A
C2467      F2471   1.357       .  S
C2468      H2472   1.083       .  S
C2473      C2474   1.397       .  A
C2473      C2478   1.392       .  A
C2473      H2483   1.084       .  S
C2474      C2479   1.480       .  S
C2474      C2475   1.409       .  A
C2475      C2476   1.404       .  A
C2475      F2480   1.357       .  S
C2476      C2477   1.405       .  A
C2476      H2481   1.083       .  S
C2477      C2478   1.414       .  A
C2478      F2482   1.358       .  S
C2479      C2484   1.410       .  A
C2479      C2488   1.398       .  A
C2484      C2485   1.403       .  A
C2484      F2489   1.357       .  S
C2485      C2486   1.402       .  A
C2485      H2490   1.083       .  S
C2486      C2487   1.412       .  A
C2487      C2488   1.394       .  A
C2487      F2491   1.358       .  S
C2488      H2492   1.084       .  S
C2493      C2494   1.407       .  A
C2493      C2498   1.400       .  A
C2493      H2503   1.083       .  S
C2494      C2499   1.493       .  S
C2494      C2495   1.411       .  A
C2495      C2496   1.400       .  A
C2495      F2500   1.357       .  S
C2496      C2497   1.402       .  A
C2496      H2501   1.084       .  S
C2497      C2498   1.404       .  A
C2498      F2502   1.357       .  S
C2499      C2504   1.406       .  A
C2499      C2508   1.409       .  A
C2504      C2505   1.396       .  A
C2504      F2509   1.358       .  S
C2505      C2506   1.410       .  A
C2505      H2510   1.083       .  S
C2506      C2507   1.408       .  A
C2507      C2508   1.405       .  A
C2507      F2511   1.357       .  S
C2508      H2512   1.083       .  S
C2513      C2514   1.405       .  A
C2513      C2518   1.397       .  A
C2513      H2523   1.083       .  S
C2514      C2519   1.483   1_556  S
C2514      C2515   1.407       .  A
C2515      C2516   1.396       .  A
C2515      F2520   1.358       .  S
C2516      C2517   1.405       .  A
C2516      H2521   1.083       .  S
C2517      C2518   1.408       .  A
C2518      F2522   1.357       .  S
C2519      C2524   1.406       .  A
C2519      C2528   1.406       .  A
C2524      C2525   1.394       .  A
C2524      F2529   1.357       .  S
C2525      C2526   1.405       .  A
C2525      H2530   1.083       .  S
C2526      C2527   1.408       .  A
C2527      C2528   1.398       .  A
C2527      F2531   1.358       .  S
C2528      H2532   1.082       .  S
C2533      C2534   1.408       .  A
C2533      C2538   1.401       .  A
C2533      H2543   1.083       .  S
C2534      C2539   1.492       .  S
C2534      C2535   1.407       .  A
C2535      C2536   1.401       .  A
C2535      F2540   1.357       .  S
C2536      C2537   1.408       .  A
C2536      H2541   1.083       .  S
C2537      C2538   1.408       .  A
C2538      F2542   1.357       .  S
C2539      C2544   1.404       .  A
C2539      C2548   1.410       .  A
C2544      C2545   1.395       .  A
C2544      F2549   1.358       .  S
C2545      C2546   1.410       .  A
C2545      H2550   1.083       .  S
C2546      C2547   1.408       .  A
C2547      C2548   1.407       .  A
C2547      F2551   1.357       .  S
C2548      H2552   1.083       .  S
C2553      C2554   1.406       .  A
C2553      C2558   1.403       .  A
C2553      H2563   1.084       .  S
C2554      C2559   1.485       .  S
C2554      C2555   1.406       .  A
C2555      C2556   1.396       .  A
C2555      F2560   1.358       .  S
C2556      C2557   1.405       .  A
C2556      H2561   1.084       .  S
C2557      C2558   1.408       .  A
C2558      F2562   1.357       .  S
C2559      C2564   1.406       .  A
C2559      C2568   1.404       .  A
C2564      C2565   1.398       .  A
C2564      F2569   1.358       .  S
C2565      C2566   1.408       .  A
C2565      H2570   1.083       .  S
C2566      C2567   1.411       .  A
C2567      C2568   1.401       .  A
C2567      F2571   1.357       .  S
C2568      H2572   1.083       .  S
C2573      C2574   1.404       .  A
C2573      C2578   1.395       .  A
C2573      H2583   1.083       .  S
C2574      C2579   1.483   1_556  S
C2574      C2575   1.409       .  A
C2575      C2576   1.399       .  A
C2575      F2580   1.358       .  S
C2576      C2577   1.403       .  A
C2576      H2581   1.084       .  S
C2577      C2578   1.405       .  A
C2578      F2582   1.358       .  S
C2579      C2584   1.407       .  A
C2579      C2588   1.403       .  A
C2584      C2585   1.398       .  A
C2584      F2589   1.357       .  S
C2585      C2586   1.405       .  A
C2585      H2590   1.082       .  S
C2586      C2587   1.412       .  A
C2587      C2588   1.397       .  A
C2587      F2591   1.358       .  S
C2588      H2592   1.083       .  S
C2593      C2594   1.404       .  A
C2593      C2598   1.400       .  A
C2593      H2603   1.083       .  S
C2594      C2599   1.477       .  S
C2594      C2595   1.402       .  A
C2595      C2596   1.394       .  A
C2595      F2600   1.358       .  S
C2596      C2597   1.408       .  A
C2596      H2601   1.083       .  S
C2597      C2598   1.411       .  A
C2598      F2602   1.357       .  S
C2599      C2604   1.402       .  A
C2599      C2608   1.407       .  A
C2604      C2605   1.392       .  A
C2604      F2609   1.358       .  S
C2605      C2606   1.406       .  A
C2605      H2610   1.084       .  S
C2606      C2607   1.404       .  A
C2607      C2608   1.402       .  A
C2607      F2611   1.357       .  S
C2608      H2612   1.083       .  S
C2613      C2614   1.403       .  A
C2613      C2618   1.401       .  A
C2613      H2623   1.083       .  S
C2614      C2619   1.475       .  S
C2614      C2615   1.401       .  A
C2615      C2616   1.395       .  A
C2615      F2620   1.358       .  S
C2616      C2617   1.409       .  A
C2616      H2621   1.083       .  S
C2617      C2618   1.410       .  A
C2618      F2622   1.357       .  S
C2619      C2624   1.400       .  A
C2619      C2628   1.405       .  A
C2624      C2625   1.394       .  A
C2624      F2629   1.358       .  S
C2625      C2626   1.409       .  A
C2625      H2630   1.083       .  S
C2626      C2627   1.408       .  A
C2627      C2628   1.402       .  A
C2627      F2631   1.357       .  S
C2628      H2632   1.083       .  S
C2633      C2634   1.406       .  A
C2633      C2638   1.399       .  A
C2633      H2643   1.083       .  S
C2634      C2639   1.484       .  S
C2634      C2635   1.405       .  A
C2635      C2636   1.397       .  A
C2635      F2640   1.358       .  S
C2636      C2637   1.408       .  A
C2636      H2641   1.083       .  S
C2637      C2638   1.408       .  A
C2638      F2642   1.357       .  S
C2639      C2644   1.410       .  A
C2639      C2648   1.401       .  A
C2644      C2645   1.402       .  A
C2644      F2649   1.357       .  S
C2645      C2646   1.404       .  A
C2645      H2650   1.083       .  S
C2646      C2647   1.412       .  A
C2647      C2648   1.394       .  A
C2647      F2651   1.358       .  S
C2648      H2652   1.083       .  S
C2653      C2654   1.406       .  A
C2653      C2658   1.399       .  A
C2653      H2663   1.083       .  S
C2654      C2659   1.483       .  S
C2654      C2655   1.406       .  A
C2655      C2656   1.395       .  A
C2655      F2660   1.358       .  S
C2656      C2657   1.406       .  A
C2656      H2661   1.083       .  S
C2657      C2658   1.408       .  A
C2658      F2662   1.357       .  S
C2659      C2664   1.405       .  A
C2659      C2668   1.406       .  A
C2664      C2665   1.396       .  A
C2664      F2669   1.358       .  S
C2665      C2666   1.408       .  A
C2665      H2670   1.083       .  S
C2666      C2667   1.408       .  A
C2667      C2668   1.398       .  A
C2667      F2671   1.357       .  S
C2668      H2672   1.083       .  S
C2673      C2674   1.407       .  A
C2673      C2678   1.400       .  A
C2673      H2683   1.083       .  S
C2674      C2679   1.491       .  S
C2674      C2675   1.408       .  A
C2675      C2676   1.403       .  A
C2675      F2680   1.357       .  S
C2676      C2677   1.409       .  A
C2676      H2681   1.083       .  S
C2677      C2678   1.408       .  A
C2678      F2682   1.357       .  S
C2679      C2684   1.411       .  A
C2679      C2688   1.402       .  A
C2684      C2685   1.407       .  A
C2684      F2689   1.357       .  S
C2685      C2686   1.408       .  A
C2685      H2690   1.082       .  S
C2686      C2687   1.411       .  A
C2687      C2688   1.395       .  A
C2687      F2691   1.358       .  S
C2688      H2692   1.083       .  S
C2693      C2694   1.399       .  A
C2693      C2698   1.395       .  A
C2693      H2703   1.084       .  S
C2694      C2699   1.479       .  S
C2694      C2695   1.408       .  A
C2695      C2696   1.399       .  A
C2695      F2700   1.357       .  S
C2696      C2697   1.404       .  A
C2696      H2701   1.083       .  S
C2697      C2698   1.414       .  A
C2698      F2702   1.358       .  S
C2699      C2704   1.401       .  A
C2699      C2708   1.408       .  A
C2704      C2705   1.390       .  A
C2704      F2709   1.358       .  S
C2705      C2706   1.408       .  A
C2705      H2710   1.083       .  S
C2706      C2707   1.406       .  A
C2707      C2708   1.404       .  A
C2707      F2711   1.357       .  S
C2708      H2712   1.083       .  S
C2713      C2714   1.402       .  A
C2713      C2718   1.398       .  A
C2713      H2723   1.083       .  S
C2714      C2719   1.478   1_655  S
C2714      C2715   1.404       .  A
C2715      C2716   1.394       .  A
C2715      F2720   1.358       .  S
C2716      C2717   1.406       .  A
C2716      H2721   1.083       .  S
C2717      C2718   1.411       .  A
C2718      F2722   1.357       .  S
C2719      C2724   1.404       .  A
C2719      C2728   1.405       .  A
C2724      C2725   1.392       .  A
C2724      F2729   1.358       .  S
C2725      C2726   1.405       .  A
C2725      H2730   1.084       .  S
C2726      C2727   1.407       .  A
C2727      C2728   1.400       .  A
C2727      F2731   1.357       .  S
C2728      H2732   1.083       .  S
C2733      C2734   1.407       .  A
C2733      C2738   1.403       .  A
C2733      H2743   1.083       .  S
C2734      C2739   1.478       .  S
C2734      C2735   1.401       .  A
C2735      C2736   1.394       .  A
C2735      F2740   1.358       .  S
C2736      C2737   1.408       .  A
C2736      H2741   1.083       .  S
C2737      C2738   1.407       .  A
C2738      F2742   1.357       .  S
C2739      C2744   1.398       .  A
C2739      C2748   1.408       .  A
C2744      C2745   1.392       .  A
C2744      F2749   1.358       .  S
C2745      C2746   1.411       .  A
C2745      H2750   1.083       .  S
C2746      C2747   1.408       .  A
C2747      C2748   1.405       .  A
C2747      F2751   1.357       .  S
C2748      H2752   1.083       .  S
C2753      C2754   1.400       .  A
C2753      C2758   1.395       .  A
C2753      H2763   1.084       .  S
C2754      C2759   1.469   1_556  S
C2754      C2755   1.402       .  A
C2755      C2756   1.394       .  A
C2755      F2760   1.358       .  S
C2756      C2757   1.406       .  A
C2756      H2761   1.083       .  S
C2757      C2758   1.411       .  A
C2758      F2762   1.357       .  S
C2759      C2764   1.402       .  A
C2759      C2768   1.401       .  A
C2764      C2765   1.394       .  A
C2764      F2769   1.358       .  S
C2765      C2766   1.407       .  A
C2765      H2770   1.083       .  S
C2766      C2767   1.410       .  A
C2767      C2768   1.395       .  A
C2767      F2771   1.357       .  S
C2768      H2772   1.083       .  S
C2773      C2774   1.406       .  A
C2773      C2778   1.404       .  A
C2773      H2783   1.083       .  S
C2774      C2779   1.485       .  S
C2774      C2775   1.403       .  A
C2775      C2776   1.396       .  A
C2775      F2780   1.358       .  S
C2776      C2777   1.409       .  A
C2776      H2781   1.083       .  S
C2777      C2778   1.410       .  A
C2778      F2782   1.357       .  S
C2779      C2784   1.404       .  A
C2779      C2788   1.408       .  A
C2784      C2785   1.398       .  A
C2784      F2789   1.358       .  S
C2785      C2786   1.409       .  A
C2785      H2790   1.083       .  S
C2786      C2787   1.406       .  A
C2787      C2788   1.402       .  A
C2787      F2791   1.357       .  S
C2788      H2792   1.083       .  S
C2793      C2794   1.396       .  A
C2793      C2798   1.391       .  A
C2793      H2803   1.083       .  S
C2794      C2799   1.466       .  S
C2794      C2795   1.403       .  A
C2795      C2796   1.398       .  A
C2795      F2800   1.357       .  S
C2796      C2797   1.407       .  A
C2796      H2801   1.082       .  S
C2797      C2798   1.413       .  A
C2798      F2802   1.358       .  S
C2799      C2804   1.399       .  A
C2799      C2808   1.401       .  A
C2804      C2805   1.392       .  A
C2804      F2809   1.358       .  S
C2805      C2806   1.408       .  A
C2805      H2810   1.083       .  S
C2806      C2807   1.410       .  A
C2807      C2808   1.398       .  A
C2807      F2811   1.357       .  S
C2808      H2812   1.083       .  S
C2813      C2814   1.405       .  A
C2813      C2818   1.404       .  A
C2813      H2823   1.084       .  S
C2814      C2819   1.486   1_556  S
C2814      C2815   1.405       .  A
C2815      C2816   1.397       .  A
C2815      F2820   1.358       .  S
C2816      C2817   1.408       .  A
C2816      H2821   1.084       .  S
C2817      C2818   1.411       .  A
C2818      F2822   1.357       .  S
C2819      C2824   1.407       .  A
C2819      C2828   1.402       .  A
C2824      C2825   1.404       .  A
C2824      F2829   1.357       .  S
C2825      C2826   1.408       .  A
C2825      H2830   1.083       .  S
C2826      C2827   1.412       .  A
C2827      C2828   1.398       .  A
C2827      F2831   1.357       .  S
C2828      H2832   1.084       .  S
C2833      C2834   1.403       .  A
C2833      C2838   1.402       .  A
C2833      H2843   1.083       .  S
C2834      C2839   1.476       .  S
C2834      C2835   1.402       .  A
C2835      C2836   1.397       .  A
C2835      F2840   1.358       .  S
C2836      C2837   1.406       .  A
C2836      H2841   1.083       .  S
C2837      C2838   1.410       .  A
C2838      F2842   1.357       .  S
C2839      C2844   1.401       .  A
C2839      C2848   1.403       .  A
C2844      C2845   1.397       .  A
C2844      F2849   1.358       .  S
C2845      C2846   1.411       .  A
C2845      H2850   1.083       .  S
C2846      C2847   1.410       .  A
C2847      C2848   1.402       .  A
C2847      F2851   1.357       .  S
C2848      H2852   1.083       .  S
C2853      C2854   1.403       .  A
C2853      C2858   1.392       .  A
C2853      H2863   1.083       .  S
C2854      C2859   1.485       .  S
C2854      C2855   1.411       .  A
C2855      C2856   1.404       .  A
C2855      F2860   1.357       .  S
C2856      C2857   1.402       .  A
C2856      H2861   1.083       .  S
C2857      C2858   1.405       .  A
C2858      F2862   1.358       .  S
C2859      C2864   1.406       .  A
C2859      C2868   1.406       .  A
C2864      C2865   1.395       .  A
C2864      F2869   1.358       .  S
C2865      C2866   1.406       .  A
C2865      H2870   1.083       .  S
C2866      C2867   1.409       .  A
C2867      C2868   1.401       .  A
C2867      F2871   1.357       .  S
C2868      H2872   1.083       .  S
C2873      C2874   1.401       .  A
C2873      C2878   1.395       .  A
C2873      H2883   1.084       .  S
C2874      C2879   1.485       .  S
C2874      C2875   1.409       .  A
C2875      C2876   1.404       .  A
C2875      F2880   1.357       .  S
C2876      C2877   1.406       .  A
C2876      H2881   1.083       .  S
C2877      C2878   1.411       .  A
C2878      F2882   1.358       .  S
C2879      C2884   1.406       .  A
C2879      C2888   1.404       .  A
C2884      C2885   1.398       .  A
C2884      F2889   1.358       .  S
C2885      C2886   1.407       .  A
C2885      H2890   1.083       .  S
C2886      C2887   1.410       .  A
C2887      C2888   1.401       .  A
C2887      F2891   1.357       .  S
C2888      H2892   1.083       .  S
C2893      C2894   1.404       .  A
C2893      C2898   1.397       .  A
C2893      H2903   1.084       .  S
C2894      C2899   1.490       .  S
C2894      C2895   1.410       .  A
C2895      C2896   1.404       .  A
C2895      F2900   1.358       .  S
C2896      C2897   1.406       .  A
C2896      H2901   1.084       .  S
C2897      C2898   1.408       .  A
C2898      F2902   1.357       .  S
C2899      C2904   1.406       .  A
C2899      C2908   1.408       .  A
C2904      C2905   1.400       .  A
C2904      F2909   1.357       .  S
C2905      C2906   1.408       .  A
C2905      H2910   1.083       .  S
C2906      C2907   1.407       .  A
C2907      C2908   1.402       .  A
C2907      F2911   1.357       .  S
C2908      H2912   1.083       .  S
C2913      C2914   1.408       .  A
C2913      C2918   1.403       .  A
C2913      H2923   1.083       .  S
C2914      C2919   1.491       .  S
C2914      C2915   1.407       .  A
C2915      C2916   1.397       .  A
C2915      F2920   1.358       .  S
C2916      C2917   1.406       .  A
C2916      H2921   1.083       .  S
C2917      C2918   1.407       .  A
C2918      F2922   1.357       .  S
C2919      C2924   1.406       .  A
C2919      C2928   1.407       .  A
C2924      C2925   1.399       .  A
C2924      F2929   1.358       .  S
C2925      C2926   1.409       .  A
C2925      H2930   1.083       .  S
C2926      C2927   1.408       .  A
C2927      C2928   1.401       .  A
C2927      F2931   1.357   1_655  S
C2928      H2932   1.083       .  S
C2933      C2934   1.407       .  A
C2933      C2938   1.406       .  A
C2933      H2943   1.083       .  S
C2934      C2939   1.485       .  S
C2934      C2935   1.401       .  A
C2935      C2936   1.396       .  A
C2935      F2940   1.358       .  S
C2936      C2937   1.411       .  A
C2936      H2941   1.083       .  S
C2937      C2938   1.409       .  A
C2938      F2942   1.357       .  S
C2939      C2944   1.401       .  A
C2939      C2948   1.408       .  A
C2944      C2945   1.396       .  A
C2944      F2949   1.358       .  S
C2945      C2946   1.410       .  A
C2945      H2950   1.083       .  S
C2946      C2947   1.408       .  A
C2947      C2948   1.406       .  A
C2947      F2951   1.357       .  S
C2948      H2952   1.083       .  S
C2953      C2954   1.405       .  A
C2953      C2958   1.400       .  A
C2953      H2963   1.083       .  S
C2954      C2959   1.477       .  S
C2954      C2955   1.402       .  A
C2955      C2956   1.396       .  A
C2955      F2960   1.358       .  S
C2956      C2957   1.409       .  A
C2956      H2961   1.083       .  S
C2957      C2958   1.407       .  A
C2958      F2962   1.357       .  S
C2959      C2964   1.401       .  A
C2959      C2968   1.404       .  A
C2964      C2965   1.394       .  A
C2964      F2969   1.358       .  S
C2965      C2966   1.409       .  A
C2965      H2970   1.083       .  S
C2966      C2967   1.410       .  A
C2967      C2968   1.402       .  A
C2967      F2971   1.357       .  S
C2968      H2972   1.083       .  S
C2973      C2974   1.404       .  A
C2973      C2978   1.403       .  A
C2973      H2983   1.083       .  S
C2974      C2979   1.471       .  S
C2974      C2975   1.400       .  A
C2975      C2976   1.388       .  A
C2975      F2980   1.358       .  S
C2976      C2977   1.408       .  A
C2976      H2981   1.083       .  S
C2977      C2978   1.409       .  A
C2978      F2982   1.357       .  S
C2979      C2984   1.403       .  A
C2979      C2988   1.399       .  A
C2984      C2985   1.400       .  A
C2984      F2989   1.357       .  S
C2985      C2986   1.408       .  A
C2985      H2990   1.083       .  S
C2986      C2987   1.411       .  A
C2987      C2988   1.390       .  A
C2987      F2991   1.358       .  S
C2988      H2992   1.084       .  S
C2993      C2994   1.400       .  A
C2993      C2998   1.393       .  A
C2993      H3003   1.083       .  S
C2994      C2999   1.482       .  S
C2994      C2995   1.410       .  A
C2995      C2996   1.403       .  A
C2995      F3000   1.357       .  S
C2996      C2997   1.404       .  A
C2996      H3001   1.083       .  S
C2997      C2998   1.411       .  A
C2998      F3002   1.358       .  S
C2999      C3004   1.404       .  A
C2999      C3008   1.405       .  A
C3004      C3005   1.396       .  A
C3004      F3009   1.357       .  S
C3005      C3006   1.408       .  A
C3005      H3010   1.084       .  S
C3006      C3007   1.409       .  A
C3007      C3008   1.399       .  A
C3007      F3011   1.357       .  S
C3008      H3012   1.084       .  S
C3013      C3014   1.404       .  A
C3013      C3018   1.396       .  A
C3013      H3023   1.083       .  S
C3014      C3019   1.478       .  S
C3014      C3015   1.403       .  A
C3015      C3016   1.396       .  A
C3015      F3020   1.358       .  S
C3016      C3017   1.409       .  A
C3016      H3021   1.083       .  S
C3017      C3018   1.408       .  A
C3018      F3022   1.357       .  S
C3019      C3024   1.403       .  A
C3019      C3028   1.407       .  A
C3024      C3025   1.392       .  A
C3024      F3029   1.358       .  S
C3025      C3026   1.405       .  A
C3025      H3030   1.084       .  S
C3026      C3027   1.405       .  A
C3027      C3028   1.400       .  A
C3027      F3031   1.357       .  S
C3028      H3032   1.083       .  S
C3033      C3034   1.407       .  A
C3033      C3038   1.404       .  A
C3033      H3043   1.084       .  S
C3034      C3039   1.489   1_556  S
C3034      C3035   1.406   1_655  A
C3035      C3036   1.398       .  A
C3035      F3040   1.357       .  S
C3036      C3037   1.407   1_455  A
C3036      H3041   1.084       .  S
C3037      C3038   1.408       .  A
C3038      F3042   1.357       .  S
C3039      C3044   1.408   1_655  A
C3039      C3048   1.403       .  A
C3044      C3045   1.403       .  A
C3044      F3049   1.357       .  S
C3045      C3046   1.407   1_455  A
C3045      H3050   1.083       .  S
C3046      C3047   1.413       .  A
C3047      C3048   1.400       .  A
C3047      F3051   1.358       .  S
C3048      H3052   1.083       .  S
C3053      C3054   1.403       .  A
C3053      C3058   1.397       .  A
C3053      H3063   1.083       .  S
C3054      C3059   1.487       .  S
C3054      C3055   1.409       .  A
C3055      C3056   1.399       .  A
C3055      F3060   1.357       .  S
C3056      C3057   1.405       .  A
C3056      H3061   1.083       .  S
C3057      C3058   1.411       .  A
C3058      F3062   1.358       .  S
C3059      C3064   1.410       .  A
C3059      C3068   1.403       .  A
C3064      C3065   1.401       .  A
C3064      F3069   1.357       .  S
C3065      C3066   1.404       .  A
C3065      H3070   1.083       .  S
C3066      C3067   1.409       .  A
C3067      C3068   1.395       .  A
C3067      F3071   1.358       .  S
C3068      H3072   1.083       .  S
C3073      C3074   1.404       .  A
C3073      C3078   1.404       .  A
C3073      H3083   1.083       .  S
C3074      C3079   1.480       .  S
C3074      C3075   1.402       .  A
C3075      C3076   1.395       .  A
C3075      F3080   1.358       .  S
C3076      C3077   1.410       .  A
C3076      H3081   1.083       .  S
C3077      C3078   1.410       .  A
C3078      F3082   1.357   1_455  S
C3079      C3084   1.401       .  A
C3079      C3088   1.405       .  A
C3084      C3085   1.394       .  A
C3084      F3089   1.358       .  S
C3085      C3086   1.409       .  A
C3085      H3090   1.083       .  S
C3086      C3087   1.411       .  A
C3087      C3088   1.405       .  A
C3087      F3091   1.357       .  S
C3088      H3092   1.083       .  S
C3093      C3094   1.406       .  A
C3093      C3098   1.401       .  A
C3093      H3103   1.083       .  S
C3094      C3099   1.480       .  S
C3094      C3095   1.402       .  A
C3095      C3096   1.396       .  A
C3095      F3100   1.358       .  S
C3096      C3097   1.410       .  A
C3096      H3101   1.083       .  S
C3097      C3098   1.408       .  A
C3098      F3102   1.357   1_655  S
C3099      C3104   1.406       .  A
C3099      C3108   1.401       .  A
C3104      C3105   1.401       .  A
C3104      F3109   1.358       .  S
C3105      C3106   1.408       .  A
C3105      H3110   1.083       .  S
C3106      C3107   1.411       .  A
C3107      C3108   1.395       .  A
C3107      F3111   1.357       .  S
C3108      H3112   1.084       .  S
C3113      C3114   1.399       .  A
C3113      C3118   1.392       .  A
C3113      H3123   1.084       .  S
C3114      C3119   1.472   1_554  S
C3114      C3115   1.403       .  A
C3115      C3116   1.399       .  A
C3115      F3120   1.358       .  S
C3116      C3117   1.408       .  A
C3116      H3121   1.083       .  S
C3117      C3118   1.410       .  A
C3118      F3122   1.357       .  S
C3119      C3124   1.403       .  A
C3119      C3128   1.401       .  A
C3124      C3125   1.393       .  A
C3124      F3129   1.358       .  S
C3125      C3126   1.405       .  A
C3125      H3130   1.082       .  S
C3126      C3127   1.413       .  A
C3127      C3128   1.399       .  A
C3127      F3131   1.358       .  S
C3128      H3132   1.083       .  S
C3133      C3134   1.402       .  A
C3133      C3138   1.395       .  A
C3133      H3143   1.084       .  S
C3134      C3139   1.489       .  S
C3134      C3135   1.411       .  A
C3135      C3136   1.404       .  A
C3135      F3140   1.357       .  S
C3136      C3137   1.406       .  A
C3136      H3141   1.083       .  S
C3137      C3138   1.412       .  A
C3138      F3142   1.358       .  S
C3139      C3144   1.411       .  A
C3139      C3148   1.403       .  A
C3144      C3145   1.401       .  A
C3144      F3149   1.357       .  S
C3145      C3146   1.403       .  A
C3145      H3150   1.083       .  S
C3146      C3147   1.412       .  A
C3147      C3148   1.398       .  A
C3147      F3151   1.358       .  S
C3148      H3152   1.083       .  S
C3153      C3154   1.400       .  A
C3153      C3158   1.392       .  A
C3153      H3163   1.084       .  S
C3154      C3159   1.485       .  S
C3154      C3155   1.410       .  A
C3155      C3156   1.406       .  A
C3155      F3160   1.357       .  S
C3156      C3157   1.406       .  A
C3156      H3161   1.083       .  S
C3157      C3158   1.413       .  A
C3158      F3162   1.358       .  S
C3159      C3164   1.407       .  A
C3159      C3168   1.404       .  A
C3164      C3165   1.398       .  A
C3164      F3169   1.358       .  S
C3165      C3166   1.407       .  A
C3165      H3170   1.083       .  S
C3166      C3167   1.411       .  A
C3167      C3168   1.401       .  A
C3167      F3171   1.357       .  S
C3168      H3172   1.083       .  S
C3173      C3174   1.401       .  A
C3173      C3178   1.394       .  A
C3173      H3183   1.083       .  S
C3174      C3179   1.483       .  S
C3174      C3175   1.410       .  A
C3175      C3176   1.402       .  A
C3175      F3180   1.357       .  S
C3176      C3177   1.403       .  A
C3176      H3181   1.083       .  S
C3177      C3178   1.410       .  A
C3178      F3182   1.358       .  S
C3179      C3184   1.406       .  A
C3179      C3188   1.404       .  A
C3184      C3185   1.397       .  A
C3184      F3189   1.357       .  S
C3185      C3186   1.407       .  A
C3185      H3190   1.083       .  S
C3186      C3187   1.411       .  A
C3187      C3188   1.398       .  A
C3187      F3191   1.357       .  S
C3188      H3192   1.083       .  S
C3193      C3194   1.406       .  A
C3193      C3198   1.405       .  A
C3193      H3203   1.083       .  S
C3194      C3199   1.483       .  S
C3194      C3195   1.403       .  A
C3195      C3196   1.391       .  A
C3195      F3200   1.358       .  S
C3196      C3197   1.409       .  A
C3196      H3201   1.083       .  S
C3197      C3198   1.410       .  A
C3198      F3202   1.357       .  S
C3199      C3204   1.404       .  A
C3199      C3208   1.407       .  A
C3204      C3205   1.391       .  A
C3204      F3209   1.358       .  S
C3205      C3206   1.406       .  A
C3205      H3210   1.083       .  S
C3206      C3207   1.409       .  A
C3207      C3208   1.405       .  A
C3207      F3211   1.357       .  S
C3208      H3212   1.083       .  S
C3213      C3214   1.400       .  A
C3213      C3218   1.398       .  A
C3213      H3223   1.083       .  S
C3214      C3219   1.472       .  S
C3214      C3215   1.403       .  A
C3215      C3216   1.394       .  A
C3215      F3220   1.358       .  S
C3216      C3217   1.405       .  A
C3216      H3221   1.082       .  S
C3217      C3218   1.413       .  A
C3218      F3222   1.358       .  S
C3219      C3224   1.401       .  A
C3219      C3228   1.402       .  A
C3224      C3225   1.392       .  A
C3224      F3229   1.358       .  S
C3225      C3226   1.407       .  A
C3225      H3230   1.083       .  S
C3226      C3227   1.411       .  A
C3227      C3228   1.400       .  A
C3227      F3231   1.357       .  S
C3228      H3232   1.083       .  S
C3233      C3234   1.404       .  A
C3233      C3238   1.401       .  A
C3233      H3243   1.083       .  S
C3234      C3239   1.480       .  S
C3234      C3235   1.403       .  A
C3235      C3236   1.396       .  A
C3235      F3240   1.358       .  S
C3236      C3237   1.408       .  A
C3236      H3241   1.083       .  S
C3237      C3238   1.411       .  A
C3238      F3242   1.357       .  S
C3239      C3244   1.406       .  A
C3239      C3248   1.402       .  A
C3244      C3245   1.399       .  A
C3244      F3249   1.358       .  S
C3245      C3246   1.405       .  A
C3245      H3250   1.083       .  S
C3246      C3247   1.410       .  A
C3247      C3248   1.398       .  A
C3247      F3251   1.357       .  S
C3248      H3252   1.084       .  S
C3253      C3254   1.400       .  A
C3253      C3258   1.399       .  A
C3253      H3263   1.084       .  S
C3254      C3259   1.471       .  S
C3254      C3255   1.401       .  A
C3255      C3256   1.397       .  A
C3255      F3260   1.357       .  S
C3256      C3257   1.408       .  A
C3256      H3261   1.084       .  S
C3257      C3258   1.412       .  A
C3258      F3262   1.357       .  S
C3259      C3264   1.402       .  A
C3259      C3268   1.398       .  A
C3264      C3265   1.400       .  A
C3264      F3269   1.357       .  S
C3265      C3266   1.408       .  A
C3265      H3270   1.083       .  S
C3266      C3267   1.413       .  A
C3267      C3268   1.397       .  A
C3267      F3271   1.357       .  S
C3268      H3272   1.084       .  S
C3273      C3274   1.410       .  A
C3273      C3278   1.400       .  A
C3273      H3283   1.082       .  S
C3274      C3279   1.488       .  S
C3274      C3275   1.406       .  A
C3275      C3276   1.394       .  A
C3275      F3280   1.358       .  S
C3276      C3277   1.407       .  A
C3276      H3281   1.084       .  S
C3277      C3278   1.404       .  A
C3278      F3282   1.357       .  S
C3279      C3284   1.405       .  A
C3279      C3288   1.411       .  A
C3284      C3285   1.393       .  A
C3284      F3289   1.357       .  S
C3285      C3286   1.406       .  A
C3285      H3290   1.083       .  S
C3286      C3287   1.404       .  A
C3287      C3288   1.402       .  A
C3287      F3291   1.357       .  S
C3288      H3292   1.082       .  S
C3293      C3294   1.403       .  A
C3293      C3298   1.392       .  A
C3293      H3303   1.083       .  S
C3294      C3299   1.480   1_455  S
C3294      C3295   1.408       .  A
C3295      C3296   1.400       .  A
C3295      F3300   1.357       .  S
C3296      C3297   1.405       .  A
C3296      H3301   1.083       .  S
C3297      C3298   1.406       .  A
C3298      F3302   1.358       .  S
C3299      C3304   1.404       .  A
C3299      C3308   1.405       .  A
C3304      C3305   1.393       .  A
C3304      F3309   1.358       .  S
C3305      C3306   1.408       .  A
C3305      H3310   1.083       .  S
C3306      C3307   1.410       .  A
C3307      C3308   1.400       .  A
C3307      F3311   1.357       .  S
C3308      H3312   1.083       .  S
C3313      C3314   1.407       .  A
C3313      C3318   1.400       .  A
C3313      H3323   1.083       .  S
C3314      C3319   1.489       .  S
C3314      C3315   1.408       .  A
C3315      C3316   1.398       .  A
C3315      F3320   1.357       .  S
C3316      C3317   1.405       .  A
C3316      H3321   1.083       .  S
C3317      C3318   1.407       .  A
C3318      F3322   1.357       .  S
C3319      C3324   1.407       .  A
C3319      C3328   1.408       .  A
C3324      C3325   1.398       .  A
C3324      F3329   1.358       .  S
C3325      C3326   1.406       .  A
C3325      H3330   1.083       .  S
C3326      C3327   1.406       .  A
C3327      C3328   1.401       .  A
C3327      F3331   1.357       .  S
C3328      H3332   1.082       .  S
C3333      C3334   1.399       .  A
C3333      C3338   1.393       .  A
C3333      H3343   1.083       .  S
C3334      C3339   1.486       .  S
C3334      C3335   1.412       .  A
C3335      C3336   1.404       .  A
C3335      F3340   1.357       .  S
C3336      C3337   1.405       .  A
C3336      H3341   1.083       .  S
C3337      C3338   1.414       .  A
C3338      F3342   1.358       .  S
C3339      C3344   1.403       .  A
C3339      C3348   1.410       .  A
C3344      C3345   1.394       .  A
C3344      F3349   1.358       .  S
C3345      C3346   1.409       .  A
C3345      H3350   1.084       .  S
C3346      C3347   1.405       .  A
C3347      C3348   1.404       .  A
C3347      F3351   1.357       .  S
C3348      H3352   1.083       .  S
C3353      C3354   1.408       .  A
C3353      C3358   1.400       .  A
C3353      H3363   1.083       .  S
C3354      C3359   1.486       .  S
C3354      C3355   1.405       .  A
C3355      C3356   1.396       .  A
C3355      F3360   1.358       .  S
C3356      C3357   1.408       .  A
C3356      H3361   1.083   1_455  S
C3357      C3358   1.406       .  A
C3358      F3362   1.357       .  S
C3359      C3364   1.409       .  A
C3359      C3368   1.405       .  A
C3364      C3365   1.397       .  A
C3364      F3369   1.357       .  S
C3365      C3366   1.403       .  A
C3365      H3370   1.083       .  S
C3366      C3367   1.407       .  A
C3367      C3368   1.398       .  A
C3367      F3371   1.358       .  S
C3368      H3372   1.083       .  S
C3373      C3374   1.403       .  A
C3373      C3378   1.400       .  A
C3373      H3383   1.083       .  S
C3374      C3379   1.482       .  S
C3374      C3375   1.406       .  A
C3375      C3376   1.397       .  A
C3375      F3380   1.358       .  S
C3376      C3377   1.405       .  A
C3376      H3381   1.083       .  S
C3377      C3378   1.411       .  A
C3378      F3382   1.357       .  S
C3379      C3384   1.403       .  A
C3379      C3388   1.406       .  A
C3384      C3385   1.394       .  A
C3384      F3389   1.358       .  S
C3385      C3386   1.408       .  A
C3385      H3390   1.083       .  S
C3386      C3387   1.408       .  A
C3387      C3388   1.402       .  A
C3387      F3391   1.357       .  S
C3388      H3392   1.083       .  S
C3393      C3394   1.399   1_545  A
C3393      C3398   1.397       .  A
C3393      H3403   1.083       .  S
C3394      C3399   1.479       .  S
C3394      C3395   1.405       .  A
C3395      C3396   1.403       .  A
C3395      F3400   1.357       .  S
C3396      C3397   1.407       .  A
C3396      H3401   1.083       .  S
C3397      C3398   1.414   1_565  A
C3398      F3402   1.358       .  S
C3399      C3404   1.404       .  A
C3399      C3408   1.400   1_565  A
C3404      C3405   1.402       .  A
C3404      F3409   1.357       .  S
C3405      C3406   1.408   1_565  A
C3405      H3410   1.083       .  S
C3406      C3407   1.415       .  A
C3407      C3408   1.399       .  A
C3407      F3411   1.357       .  S
C3408      H3412   1.084       .  S
C3413      C3414   1.408       .  A
C3413      C3418   1.402       .  A
C3413      H3423   1.083       .  S
C3414      C3419   1.492       .  S
C3414      C3415   1.407       .  A
C3415      C3416   1.398       .  A
C3415      F3420   1.357       .  S
C3416      C3417   1.408       .  A
C3416      H3421   1.083       .  S
C3417      C3418   1.409       .  A
C3418      F3422   1.357       .  S
C3419      C3424   1.406       .  A
C3419      C3428   1.411       .  A
C3424      C3425   1.396       .  A
C3424      F3429   1.358       .  S
C3425      C3426   1.408       .  A
C3425      H3430   1.083       .  S
C3426      C3427   1.404       .  A
C3427      C3428   1.404       .  A
C3427      F3431   1.357       .  S
C3428      H3432   1.083       .  S
C3433      C3434   1.402   1_565  A
C3433      C3438   1.395       .  A
C3433      H3443   1.084       .  S
C3434      C3439   1.476       .  S
C3434      C3435   1.404       .  A
C3435      C3436   1.397       .  A
C3435      F3440   1.357       .  S
C3436      C3437   1.407       .  A
C3436      H3441   1.083       .  S
C3437      C3438   1.411   1_545  A
C3438      F3442   1.358       .  S
C3439      C3444   1.404   1_545  A
C3439      C3448   1.405       .  A
C3444      C3445   1.392       .  A
C3444      F3449   1.358       .  S
C3445      C3446   1.404   1_565  A
C3445      H3450   1.083       .  S
C3446      C3447   1.407       .  A
C3447      C3448   1.399       .  A
C3447      F3451   1.358       .  S
C3448      H3452   1.083       .  S
C3453      C3454   1.402   1_545  A
C3453      C3458   1.392       .  A
C3453      H3463   1.083       .  S
C3454      C3459   1.483       .  S
C3454      C3455   1.408       .  A
C3455      C3456   1.400       .  A
C3455      F3460   1.357       .  S
C3456      C3457   1.407       .  A
C3456      H3461   1.083       .  S
C3457      C3458   1.411   1_565  A
C3458      F3462   1.358       .  S
C3459      C3464   1.406   1_565  A
C3459      C3468   1.405       .  A
C3464      C3465   1.393       .  A
C3464      F3469   1.358       .  S
C3465      C3466   1.405       .  A
C3465      H3470   1.083       .  S
C3466      C3467   1.410   1_545  A
C3467      C3468   1.399       .  A
C3467      F3471   1.357       .  S
C3468      H3472   1.083       .  S
C3473      C3474   1.400   1_545  A
C3473      C3478   1.394       .  A
C3473      H3483   1.083       .  S
C3474      C3479   1.485       .  S
C3474      C3475   1.412       .  A
C3475      C3476   1.402       .  A
C3475      F3480   1.357       .  S
C3476      C3477   1.402       .  A
C3476      H3481   1.083       .  S
C3477      C3478   1.411   1_565  A
C3478      F3482   1.358       .  S
C3479      C3484   1.413   1_565  A
C3479      C3488   1.399       .  A
C3484      C3485   1.405       .  A
C3484      F3489   1.357       .  S
C3485      C3486   1.402       .  A
C3485      H3490   1.083       .  S
C3486      C3487   1.410   1_545  A
C3487      C3488   1.391       .  A
C3487      F3491   1.358       .  S
C3488      H3492   1.083       .  S
C3493      C3494   1.408       .  A
C3493      C3498   1.402       .  A
C3493      H3503   1.083       .  S
C3494      C3499   1.495       .  S
C3494      C3495   1.409       .  A
C3495      C3496   1.401       .  A
C3495      F3500   1.357       .  S
C3496      C3497   1.406       .  A
C3496      H3501   1.083       .  S
C3497      C3498   1.407       .  A
C3498      F3502   1.357       .  S
C3499      C3504   1.411       .  A
C3499      C3508   1.403       .  A
C3504      C3505   1.405       .  A
C3504      F3509   1.357       .  S
C3505      C3506   1.407       .  A
C3505      H3510   1.082       .  S
C3506      C3507   1.414       .  A
C3507      C3508   1.397       .  A
C3507      F3511   1.358       .  S
C3508      H3512   1.082       .  S
C3513      C3514   1.402       .  A
C3513      C3518   1.396       .  A
C3513      H3523   1.083       .  S
C3514      C3519   1.480       .  S
C3514      C3515   1.408       .  A
C3515      C3516   1.397       .  A
C3515      F3520   1.357       .  S
C3516      C3517   1.404       .  A
C3516      H3521   1.083       .  S
C3517      C3518   1.409       .  A
C3518      F3522   1.358       .  S
C3519      C3524   1.402       .  A
C3519      C3528   1.407       .  A
C3524      C3525   1.391       .  A
C3524      F3529   1.358       .  S
C3525      C3526   1.408       .  A
C3525      H3530   1.083       .  S
C3526      C3527   1.408       .  A
C3527      C3528   1.402       .  A
C3527      F3531   1.357       .  S
C3528      H3532   1.084       .  S
C3533      C3534   1.400       .  A
C3533      C3538   1.393       .  A
C3533      H3543   1.084       .  S
C3534      C3539   1.473       .  S
C3534      C3535   1.405   1_545  A
C3535      C3536   1.398       .  A
C3535      F3540   1.357       .  S
C3536      C3537   1.405       .  A
C3536      H3541   1.084       .  S
C3537      C3538   1.410   1_565  A
C3538      F3542   1.358       .  S
C3539      C3544   1.404   1_545  A
C3539      C3548   1.400       .  A
C3544      C3545   1.396       .  A
C3544      F3549   1.357       .  S
C3545      C3546   1.406   1_565  A
C3545      H3550   1.083       .  S
C3546      C3547   1.413       .  A
C3547      C3548   1.396       .  A
C3547      F3551   1.358       .  S
C3548      H3552   1.084       .  S
C3553      C3554   1.401   1_565  A
C3553      C3558   1.398       .  A
C3553      H3563   1.083       .  S
C3554      C3559   1.475   1_545  S
C3554      C3555   1.403       .  A
C3555      C3556   1.398       .  A
C3555      F3560   1.357       .  S
C3556      C3557   1.407       .  A
C3556      H3561   1.083       .  S
C3557      C3558   1.412   1_545  A
C3558      F3562   1.358       .  S
C3559      C3564   1.406       .  A
C3559      C3568   1.398   1_565  A
C3564      C3565   1.403       .  A
C3564      F3569   1.357       .  S
C3565      C3566   1.406       .  A
C3565      H3570   1.082       .  S
C3566      C3567   1.412   1_565  A
C3567      C3568   1.394       .  A
C3567      F3571   1.358       .  S
C3568      H3572   1.083       .  S
C3573      C3574   1.403       .  A
C3573      C3578   1.404       .  A
C3573      H3583   1.083       .  S
C3574      C3579   1.471       .  S
C3574      C3575   1.398       .  A
C3575      C3576   1.392       .  A
C3575      F3580   1.358   1_565  S
C3576      C3577   1.410       .  A
C3576      H3581   1.083   1_565  S
C3577      C3578   1.410       .  A
C3578      F3582   1.357       .  S
C3579      C3584   1.400       .  A
C3579      C3588   1.401   1_565  A
C3584      C3585   1.398       .  A
C3584      F3589   1.358       .  S
C3585      C3586   1.410       .  A
C3585      H3590   1.083       .  S
C3586      C3587   1.409   1_565  A
C3587      C3588   1.397       .  A
C3587      F3591   1.357       .  S
C3588      H3592   1.083       .  S
C3593      C3594   1.408       .  A
C3593      C3598   1.406       .  A
C3593      H3603   1.083       .  S
C3594      C3599   1.489       .  S
C3594      C3595   1.405       .  A
C3595      C3596   1.393       .  A
C3595      F3600   1.358       .  S
C3596      C3597   1.408       .  A
C3596      H3601   1.083       .  S
C3597      C3598   1.411       .  A
C3598      F3602   1.357   1_655  S
C3599      C3604   1.409       .  A
C3599      C3608   1.403       .  A
C3604      C3605   1.406       .  A
C3604      F3609   1.357       .  S
C3605      C3606   1.407       .  A
C3605      H3610   1.082       .  S
C3606      C3607   1.410       .  A
C3607      C3608   1.393       .  A
C3607      F3611   1.358       .  S
C3608      H3612   1.083       .  S
C3613      C3614   1.401   1_545  A
C3613      C3618   1.393       .  A
C3613      H3623   1.084       .  S
C3614      C3619   1.479       .  S
C3614      C3615   1.408       .  A
C3615      C3616   1.401       .  A
C3615      F3620   1.357       .  S
C3616      C3617   1.406       .  A
C3616      H3621   1.084   1_455  S
C3617      C3618   1.408   1_565  A
C3618      F3622   1.358       .  S
C3619      C3624   1.408       .  A
C3619      C3628   1.402       .  A
C3624      C3625   1.398       .  A
C3624      F3629   1.358   1_565  S
C3625      C3626   1.401       .  A
C3625      H3630   1.083   1_565  S
C3626      C3627   1.409       .  A
C3627      C3628   1.397       .  A
C3627      F3631   1.358       .  S
C3628      H3632   1.083   1_455  S
C3633      C3634   1.406       .  A
C3633      C3638   1.401       .  A
C3633      H3643   1.084       .  S
C3634      C3639   1.478       .  S
C3634      C3635   1.402       .  A
C3635      C3636   1.391       .  A
C3635      F3640   1.358       .  S
C3636      C3637   1.408       .  A
C3636      H3641   1.084       .  S
C3637      C3638   1.408       .  A
C3638      F3642   1.357       .  S
C3639      C3644   1.407       .  A
C3639      C3648   1.404       .  A
C3644      C3645   1.399       .  A
C3644      F3649   1.357       .  S
C3645      C3646   1.402       .  A
C3645      H3650   1.085       .  S
C3646      C3647   1.403       .  A
C3647      C3648   1.393       .  A
C3647      F3651   1.358       .  S
C3648      H3652   1.085       .  S
C3653      C3654   1.408       .  A
C3653      C3658   1.405       .  A
C3653      H3663   1.083       .  S
C3654      C3659   1.493       .  S
C3654      C3655   1.406       .  A
C3655      C3656   1.399       .  A
C3655      F3660   1.357       .  S
C3656      C3657   1.407       .  A
C3656      H3661   1.083       .  S
C3657      C3658   1.409       .  A
C3658      F3662   1.357       .  S
C3659      C3664   1.406       .  A
C3659      C3668   1.408       .  A
C3664      C3665   1.401       .  A
C3664      F3669   1.358       .  S
C3665      C3666   1.410       .  A
C3665      H3670   1.083       .  S
C3666      C3667   1.409       .  A
C3667      C3668   1.403       .  A
C3667      F3671   1.357   1_455  S
C3668      H3672   1.083       .  S
C3673      C3674   1.405       .  A
C3673      C3678   1.397       .  A
C3673      H3683   1.083       .  S
C3674      C3679   1.483       .  S
C3674      C3675   1.407       .  A
C3675      C3676   1.396       .  A
C3675      F3680   1.358       .  S
C3676      C3677   1.405       .  A
C3676      H3681   1.083       .  S
C3677      C3678   1.409       .  A
C3678      F3682   1.358       .  S
C3679      C3684   1.405       .  A
C3679      C3688   1.406       .  A
C3684      C3685   1.395       .  A
C3684      F3689   1.358       .  S
C3685      C3686   1.408       .  A
C3685      H3690   1.083       .  S
C3686      C3687   1.407       .  A
C3687      C3688   1.399       .  A
C3687      F3691   1.357       .  S
C3688      H3692   1.083       .  S
C3693      C3694   1.398       .  A
C3693      C3698   1.392       .  A
C3693      H3703   1.084       .  S
C3694      C3699   1.476       .  S
C3694      C3695   1.409       .  A
C3695      C3696   1.401       .  A
C3695      F3700   1.357       .  S
C3696      C3697   1.403       .  A
C3696      H3701   1.083       .  S
C3697      C3698   1.412       .  A
C3698      F3702   1.358       .  S
C3699      C3704   1.409       .  A
C3699      C3708   1.399       .  A
C3704      C3705   1.401       .  A
C3704      F3709   1.357       .  S
C3705      C3706   1.403       .  A
C3705      H3710   1.083       .  S
C3706      C3707   1.410       .  A
C3707      C3708   1.393       .  A
C3707      F3711   1.358       .  S
C3708      H3712   1.083       .  S
C3713      C3714   1.403       .  A
C3713      C3718   1.398       .  A
C3713      H3723   1.084       .  S
C3714      C3719   1.491       .  S
C3714      C3715   1.411       .  A
C3715      C3716   1.403       .  A
C3715      F3720   1.357       .  S
C3716      C3717   1.405       .  A
C3716      H3721   1.084       .  S
C3717      C3718   1.412       .  A
C3718      F3722   1.358       .  S
C3719      C3724   1.407       .  A
C3719      C3728   1.408       .  A
C3724      C3725   1.399       .  A
C3724      F3729   1.357       .  S
C3725      C3726   1.407       .  A
C3725      H3730   1.083       .  S
C3726      C3727   1.407       .  A
C3727      C3728   1.403       .  A
C3727      F3731   1.357       .  S
C3728      H3732   1.082       .  S
C3733      C3734   1.400       .  A
C3733      C3738   1.393       .  A
C3733      H3743   1.083       .  S
C3734      C3739   1.476       .  S
C3734      C3735   1.406       .  A
C3735      C3736   1.400       .  A
C3735      F3740   1.357       .  S
C3736      C3737   1.406       .  A
C3736      H3741   1.083       .  S
C3737      C3738   1.410       .  A
C3738      F3742   1.358       .  S
C3739      C3744   1.403       .  A
C3739      C3748   1.403       .  A
C3744      C3745   1.395       .  A
C3744      F3749   1.358       .  S
C3745      C3746   1.408       .  A
C3745      H3750   1.083       .  S
C3746      C3747   1.410       .  A
C3747      C3748   1.399       .  A
C3747      F3751   1.357       .  S
C3748      H3752   1.083       .  S
C3753      C3754   1.402       .  A
C3753      C3758   1.399       .  A
C3753      H3763   1.084       .  S
C3754      C3759   1.488       .  S
C3754      C3755   1.409       .  A
C3755      C3756   1.400       .  A
C3755      F3760   1.357       .  S
C3756      C3757   1.405       .  A
C3756      H3761   1.084       .  S
C3757      C3758   1.413       .  A
C3758      F3762   1.358       .  S
C3759      C3764   1.409       .  A
C3759      C3768   1.401       .  A
C3764      C3765   1.404       .  A
C3764      F3769   1.357       .  S
C3765      C3766   1.407       .  A
C3765      H3770   1.083       .  S
C3766      C3767   1.413       .  A
C3767      C3768   1.396       .  A
C3767      F3771   1.358       .  S
C3768      H3772   1.084       .  S
C3773      C3774   1.404   1_455  A
C3773      C3778   1.398       .  A
C3773      H3783   1.083       .  S
C3774      C3779   1.475       .  S
C3774      C3775   1.404       .  A
C3775      C3776   1.391       .  A
C3775      F3780   1.357       .  S
C3776      C3777   1.404   1_655  A
C3776      H3781   1.083       .  S
C3777      C3778   1.409       .  A
C3778      F3782   1.358       .  S
C3779      C3784   1.407       .  A
C3779      C3788   1.400   1_655  A
C3784      C3785   1.397       .  A
C3784      F3789   1.358       .  S
C3785      C3786   1.404       .  A
C3785      H3790   1.083       .  S
C3786      C3787   1.411   1_655  A
C3787      C3788   1.393       .  A
C3787      F3791   1.358       .  S
C3788      H3792   1.084       .  S
C3793      C3794   1.407       .  A
C3793      C3798   1.408       .  A
C3793      H3803   1.083       .  S
C3794      C3799   1.488       .  S
C3794      C3795   1.404       .  A
C3795      C3796   1.394       .  A
C3795      F3800   1.358       .  S
C3796      C3797   1.407       .  A
C3796      H3801   1.083       .  S
C3797      C3798   1.411       .  A
C3798      F3802   1.357   1_455  S
C3799      C3804   1.404       .  A
C3799      C3808   1.407       .  A
C3804      C3805   1.395       .  A
C3804      F3809   1.358       .  S
C3805      C3806   1.409       .  A
C3805      H3810   1.083       .  S
C3806      C3807   1.411       .  A
C3807      C3808   1.407       .  A
C3807      F3811   1.357       .  S
C3808      H3812   1.083       .  S
C3813      C3814   1.409       .  A
C3813      C3818   1.400       .  A
C3813      H3823   1.083       .  S
C3814      C3819   1.482       .  S
C3814      C3815   1.402       .  A
C3815      C3816   1.395       .  A
C3815      F3820   1.358       .  S
C3816      C3817   1.409       .  A
C3816      H3821   1.084       .  S
C3817      C3818   1.403       .  A
C3818      F3822   1.357       .  S
C3819      C3824   1.402       .  A
C3819      C3828   1.410       .  A
C3824      C3825   1.390       .  A
C3824      F3829   1.358       .  S
C3825      C3826   1.406       .  A
C3825      H3830   1.084       .  S
C3826      C3827   1.405       .  A
C3827      C3828   1.405       .  A
C3827      F3831   1.357       .  S
C3828      H3832   1.083       .  S
C3833      C3834   1.404       .  A
C3833      C3838   1.394       .  A
C3833      H3843   1.083       .  S
C3834      C3839   1.483       .  S
C3834      C3835   1.407       .  A
C3835      C3836   1.399       .  A
C3835      F3840   1.357       .  S
C3836      C3837   1.406       .  A
C3836      H3841   1.083       .  S
C3837      C3838   1.409       .  A
C3838      F3842   1.358       .  S
C3839      C3844   1.405       .  A
C3839      C3848   1.406       .  A
C3844      C3845   1.392       .  A
C3844      F3849   1.358       .  S
C3845      C3846   1.407       .  A
C3845      H3850   1.083       .  S
C3846      C3847   1.409       .  A
C3847      C3848   1.400       .  A
C3847      F3851   1.357       .  S
C3848      H3852   1.083       .  S
C3853      C3854   1.404       .  A
C3853      C3858   1.398       .  A
C3853      H3863   1.084       .  S
C3854      C3859   1.477       .  S
C3854      C3855   1.404       .  A
C3855      C3856   1.392       .  A
C3855      F3860   1.358       .  S
C3856      C3857   1.405       .  A
C3856      H3861   1.084       .  S
C3857      C3858   1.408       .  A
C3858      F3862   1.357       .  S
C3859      C3864   1.406       .  A
C3859      C3868   1.400       .  A
C3864      C3865   1.399       .  A
C3864      F3869   1.357       .  S
C3865      C3866   1.406       .  A
C3865      H3870   1.083       .  S
C3866      C3867   1.411       .  A
C3867      C3868   1.392       .  A
C3867      F3871   1.358       .  S
C3868      H3872   1.084       .  S
C3873      C3874   1.408       .  A
C3873      C3878   1.401       .  A
C3873      H3883   1.082       .  S
C3874      C3879   1.494       .  S
C3874      C3875   1.409       .  A
C3875      C3876   1.400       .  A
C3875      F3880   1.357       .  S
C3876      C3877   1.406       .  A
C3876      H3881   1.083       .  S
C3877      C3878   1.407       .  A
C3878      F3882   1.358       .  S
C3879      C3884   1.408       .  A
C3879      C3888   1.408       .  A
C3884      C3885   1.398       .  A
C3884      F3889   1.357       .  S
C3885      C3886   1.408       .  A
C3885      H3890   1.082       .  S
C3886      C3887   1.410       .  A
C3887      C3888   1.403       .  A
C3887      F3891   1.357       .  S
C3888      H3892   1.082       .  S
C3893      C3894   1.406       .  A
C3893      C3898   1.399       .  A
C3893      H3903   1.083       .  S
C3894      C3899   1.490       .  S
C3894      C3895   1.411       .  A
C3895      C3896   1.399       .  A
C3895      F3900   1.357       .  S
C3896      C3897   1.402       .  A
C3896      H3901   1.083       .  S
C3897      C3898   1.407       .  A
C3898      F3902   1.358       .  S
C3899      C3904   1.406       .  A
C3899      C3908   1.409       .  A
C3904      C3905   1.394       .  A
C3904      F3909   1.357       .  S
C3905      C3906   1.408       .  A
C3905      H3910   1.083       .  S
C3906      C3907   1.409       .  A
C3907      C3908   1.404       .  A
C3907      F3911   1.357       .  S
C3908      H3912   1.083       .  S
C3913      C3914   1.408       .  A
C3913      C3918   1.402       .  A
C3913      H3923   1.083       .  S
C3914      C3919   1.494       .  S
C3914      C3915   1.408       .  A
C3915      C3916   1.400       .  A
C3915      F3920   1.357       .  S
C3916      C3917   1.408       .  A
C3916      H3921   1.083       .  S
C3917      C3918   1.409       .  A
C3918      F3922   1.357   1_655  S
C3919      C3924   1.407       .  A
C3919      C3928   1.409       .  A
C3924      C3925   1.399       .  A
C3924      F3929   1.358   1_655  S
C3925      C3926   1.408       .  A
C3925      H3930   1.083       .  S
C3926      C3927   1.407       .  A
C3927      C3928   1.403       .  A
C3927      F3931   1.357       .  S
C3928      H3932   1.083       .  S
C3933      C3934   1.402       .  A
C3933      C3938   1.399       .  A
C3933      H3943   1.084       .  S
C3934      C3939   1.477       .  S
C3934      C3935   1.404       .  A
C3935      C3936   1.393       .  A
C3935      F3940   1.358       .  S
C3936      C3937   1.405       .  A
C3936      H3941   1.084       .  S
C3937      C3938   1.411       .  A
C3938      F3942   1.357       .  S
C3939      C3944   1.405       .  A
C3939      C3948   1.401       .  A
C3944      C3945   1.398       .  A
C3944      F3949   1.357       .  S
C3945      C3946   1.406       .  A
C3945      H3950   1.084       .  S
C3946      C3947   1.411       .  A
C3947      C3948   1.393       .  A
C3947      F3951   1.358       .  S
C3948      H3952   1.084       .  S
C3953      C3954   1.407       .  A
C3953      C3958   1.399       .  A
C3953      H3963   1.082       .  S
C3954      C3959   1.486       .  S
C3954      C3955   1.406       .  A
C3955      C3956   1.397       .  A
C3955      F3960   1.358       .  S
C3956      C3957   1.407       .  A
C3956      H3961   1.083       .  S
C3957      C3958   1.406       .  A
C3958      F3962   1.357       .  S
C3959      C3964   1.405       .  A
C3959      C3968   1.408       .  A
C3964      C3965   1.394       .  A
C3964      F3969   1.357       .  S
C3965      C3966   1.407       .  A
C3965      H3970   1.083       .  S
C3966      C3967   1.409       .  A
C3967      C3968   1.402       .  A
C3967      F3971   1.357       .  S
C3968      H3972   1.083       .  S
C3973      C3974   1.410       .  A
C3973      C3978   1.405       .  A
C3973      H3983   1.083       .  S
C3974      C3979   1.484       .  S
C3974      C3975   1.401       .  A
C3975      C3976   1.389       .  A
C3975      F3980   1.358       .  S
C3976      C3977   1.409       .  A
C3976      H3981   1.083       .  S
C3977      C3978   1.407       .  A
C3978      F3982   1.357       .  S
C3979      C3984   1.405       .  A
C3979      C3988   1.409       .  A
C3984      C3985   1.395       .  A
C3984      F3989   1.358       .  S
C3985      C3986   1.405       .  A
C3985      H3990   1.084       .  S
C3986      C3987   1.402       .  A
C3987      C3988   1.400       .  A
C3987      F3991   1.357       .  S
C3988      H3992   1.083       .  S
C3993      C3994   1.405       .  A
C3993      C3998   1.398       .  A
C3993      H4003   1.083       .  S
C3994      C3999   1.487       .  S
C3994      C3995   1.406       .  A
C3995      C3996   1.399       .  A
C3995      F4000   1.358       .  S
C3996      C3997   1.409       .  A
C3996      H4001   1.083       .  S
C3997      C3998   1.410       .  A
C3998      F4002   1.357       .  S
C3999      C4004   1.406       .  A
C3999      C4008   1.408       .  A
C4004      C4005   1.396       .  A
C4004      F4009   1.358       .  S
C4005      C4006   1.407       .  A
C4005      H4010   1.083       .  S
C4006      C4007   1.407       .  A
C4007      C4008   1.402       .  A
C4007      F4011   1.357       .  S
C4008      H4012   1.083       .  S
C4013      C4014   1.403       .  A
C4013      C4018   1.400       .  A
C4013      H4023   1.083       .  S
C4014      C4019   1.486       .  S
C4014      C4015   1.409       .  A
C4015      C4016   1.397       .  A
C4015      F4020   1.357       .  S
C4016      C4017   1.404       .  A
C4016      H4021   1.083       .  S
C4017      C4018   1.412       .  A
C4018      F4022   1.358       .  S
C4019      C4024   1.403       .  A
C4019      C4028   1.409       .  A
C4024      C4025   1.390       .  A
C4024      F4029   1.358       .  S
C4025      C4026   1.409       .  A
C4025      H4030   1.083       .  S
C4026      C4027   1.408       .  A
C4027      C4028   1.406       .  A
C4027      F4031   1.357       .  S
C4028      H4032   1.083       .  S
C4033      C4034   1.400       .  A
C4033      C4038   1.395       .  A
C4033      H4043   1.083       .  S
C4034      C4039   1.487       .  S
C4034      C4035   1.410       .  A
C4035      C4036   1.402       .  A
C4035      F4040   1.357       .  S
C4036      C4037   1.405       .  A
C4036      H4041   1.083       .  S
C4037      C4038   1.416       .  A
C4038      F4042   1.358       .  S
C4039      C4044   1.405       .  A
C4039      C4048   1.410       .  A
C4044      C4045   1.395       .  A
C4044      F4049   1.358       .  S
C4045      C4046   1.405       .  A
C4045      H4050   1.084       .  S
C4046      C4047   1.404       .  A
C4047      C4048   1.403       .  A
C4047      F4051   1.357       .  S
C4048      H4052   1.083       .  S
C4053      C4054   1.408       .  A
C4053      C4058   1.400       .  A
C4053      H4063   1.083       .  S
C4054      C4059   1.494       .  S
C4054      C4055   1.409       .  A
C4055      C4056   1.401       .  A
C4055      F4060   1.357       .  S
C4056      C4057   1.405       .  A
C4056      H4061   1.083       .  S
C4057      C4058   1.406       .  A
C4058      F4062   1.358       .  S
C4059      C4064   1.406       .  A
C4059      C4068   1.409       .  A
C4064      C4065   1.397       .  A
C4064      F4069   1.358       .  S
C4065      C4066   1.409       .  A
C4065      H4070   1.083       .  S
C4066      C4067   1.409       .  A
C4067      C4068   1.405       .  A
C4067      F4071   1.357       .  S
C4068      H4072   1.083       .  S
C4073      C4074   1.400       .  A
C4073      C4078   1.395       .  A
C4073      H4083   1.084       .  S
C4074      C4079   1.479       .  S
C4074      C4075   1.407       .  A
C4075      C4076   1.398       .  A
C4075      F4080   1.358       .  S
C4076      C4077   1.405       .  A
C4076      H4081   1.083       .  S
C4077      C4078   1.411       .  A
C4078      F4082   1.358       .  S
C4079      C4084   1.401       .  A
C4079      C4088   1.407       .  A
C4084      C4085   1.392       .  A
C4084      F4089   1.358       .  S
C4085      C4086   1.409       .  A
C4085      H4090   1.083       .  S
C4086      C4087   1.406       .  A
C4087      C4088   1.402       .  A
C4087      F4091   1.357       .  S
C4088      H4092   1.083       .  S
C4093      C4094   1.405       .  A
C4093      C4098   1.398       .  A
C4093      H4103   1.083       .  S
C4094      C4099   1.492       .  S
C4094      C4095   1.412       .  A
C4095      C4096   1.402       .  A
C4095      F4100   1.357       .  S
C4096      C4097   1.403       .  A
C4096      H4101   1.083       .  S
C4097      C4098   1.407       .  A
C4098      F4102   1.358       .  S
C4099      C4104   1.406       .  A
C4099      C4108   1.409       .  A
C4104      C4105   1.397       .  A
C4104      F4109   1.357       .  S
C4105      C4106   1.409       .  A
C4105      H4110   1.083       .  S
C4106      C4107   1.409       .  A
C4107      C4108   1.403       .  A
C4107      F4111   1.357       .  S
C4108      H4112   1.083       .  S
C4113      C4114   1.402       .  A
C4113      C4118   1.393       .  A
C4113      H4123   1.083       .  S
C4114      C4119   1.484       .  S
C4114      C4115   1.412       .  A
C4115      C4116   1.401       .  A
C4115      F4120   1.357       .  S
C4116      C4117   1.401       .  A
C4116      H4121   1.083       .  S
C4117      C4118   1.408       .  A
C4118      F4122   1.358       .  S
C4119      C4124   1.411       .  A
C4119      C4128   1.400       .  A
C4124      C4125   1.401       .  A
C4124      F4129   1.357       .  S
C4125      C4126   1.403       .  A
C4125      H4130   1.083       .  S
C4126      C4127   1.412       .  A
C4127      C4128   1.392       .  A
C4127      F4131   1.358       .  S
C4128      H4132   1.083       .  S
C4133      C4134   1.403       .  A
C4133      C4138   1.399       .  A
C4133      H4143   1.083       .  S
C4134      C4139   1.480   1_455  S
C4134      C4135   1.406       .  A
C4135      C4136   1.394       .  A
C4135      F4140   1.358       .  S
C4136      C4137   1.404       .  A
C4136      H4141   1.083       .  S
C4137      C4138   1.411       .  A
C4138      F4142   1.358       .  S
C4139      C4144   1.408       .  A
C4139      C4148   1.399       .  A
C4144      C4145   1.403       .  A
C4144      F4149   1.357       .  S
C4145      C4146   1.407       .  A
C4145      H4150   1.083       .  S
C4146      C4147   1.413       .  A
C4147      C4148   1.390       .  A
C4147      F4151   1.358       .  S
C4148      H4152   1.084       .  S
C4153      C4154   1.409       .  A
C4153      C4158   1.403       .  A
C4153      H4163   1.083       .  S
C4154      C4159   1.491       .  S
C4154      C4155   1.405       .  A
C4155      C4156   1.397       .  A
C4155      F4160   1.358       .  S
C4156      C4157   1.411       .  A
C4156      H4161   1.083       .  S
C4157      C4158   1.407       .  A
C4158      F4162   1.357       .  S
C4159      C4164   1.407       .  A
C4159      C4168   1.409       .  A
C4164      C4165   1.398       .  A
C4164      F4169   1.357       .  S
C4165      C4166   1.404       .  A
C4165      H4170   1.083       .  S
C4166      C4167   1.406       .  A
C4167      C4168   1.403       .  A
C4167      F4171   1.358       .  S
C4168      H4172   1.082       .  S
C4173      C4174   1.403       .  A
C4173      C4178   1.396       .  A
C4173      H4183   1.084       .  S
C4174      C4179   1.476       .  S
C4174      C4175   1.404       .  A
C4175      C4176   1.397       .  A
C4175      F4180   1.358       .  S
C4176      C4177   1.407       .  A
C4176      H4181   1.084       .  S
C4177      C4178   1.408       .  A
C4178      F4182   1.357       .  S
C4179      C4184   1.407       .  A
C4179      C4188   1.400       .  A
C4184      C4185   1.400       .  A
C4184      F4189   1.357       .  S
C4185      C4186   1.406       .  A
C4185      H4190   1.083       .  S
C4186      C4187   1.411       .  A
C4187      C4188   1.392       .  A
C4187      F4191   1.358       .  S
C4188      H4192   1.083       .  S
C4193      C4194   1.400   1_455  A
C4193      C4198   1.397       .  A
C4193      H4203   1.084       .  S
C4194      C4199   1.475   1_545  S
C4194      C4195   1.404   1_545  A
C4195      C4196   1.397       .  A
C4195      F4200   1.357       .  S
C4196      C4197   1.407   1_565  A
C4196      H4201   1.084       .  S
C4197      C4198   1.412   1_655  A
C4198      F4202   1.357       .  S
C4199      C4204   1.405   1_655  A
C4199      C4208   1.400   1_565  A
C4204      C4205   1.400       .  A
C4204      F4209   1.357       .  S
C4205      C4206   1.406       .  A
C4205      H4210   1.084       .  S
C4206      C4207   1.410   1_465  A
C4207      C4208   1.396       .  A
C4207      F4211   1.358       .  S
C4208      H4212   1.084       .  S
C4213      C4214   1.402   1_565  A
C4213      C4218   1.396       .  A
C4213      H4223   1.084       .  S
C4214      C4219   1.482       .  S
C4214      C4215   1.407       .  A
C4215      C4216   1.400       .  A
C4215      F4220   1.357       .  S
C4216      C4217   1.405       .  A
C4216      H4221   1.083       .  S
C4217      C4218   1.410   1_545  A
C4218      F4222   1.358       .  S
C4219      C4224   1.404       .  A
C4219      C4228   1.405   1_545  A
C4224      C4225   1.397       .  A
C4224      F4229   1.358       .  S
C4225      C4226   1.408   1_545  A
C4225      H4230   1.082       .  S
C4226      C4227   1.409       .  A
C4227      C4228   1.399       .  A
C4227      F4231   1.357       .  S
C4228      H4232   1.083       .  S
C4233      C4234   1.402   1_565  A
C4233      C4238   1.394       .  A
C4233      H4243   1.084       .  S
C4234      C4239   1.476       .  S
C4234      C4235   1.405       .  A
C4235      C4236   1.397       .  A
C4235      F4240   1.358       .  S
C4236      C4237   1.406   1_545  A
C4236      H4241   1.083       .  S
C4237      C4238   1.410       .  A
C4238      F4242   1.358       .  S
C4239      C4244   1.407       .  A
C4239      C4248   1.399   1_545  A
C4244      C4245   1.399       .  A
C4244      F4249   1.357       .  S
C4245      C4246   1.404       .  A
C4245      H4250   1.084       .  S
C4246      C4247   1.412   1_545  A
C4247      C4248   1.391       .  A
C4247      F4251   1.358       .  S
C4248      H4252   1.084       .  S
C4253      C4254   1.409       .  A
C4253      C4258   1.405       .  A
C4253      H4263   1.083       .  S
C4254      C4259   1.482       .  S
C4254      C4255   1.400   1_545  A
C4255      C4256   1.391       .  A
C4255      F4260   1.358       .  S
C4256      C4257   1.410   1_565  A
C4256      H4261   1.083       .  S
C4257      C4258   1.406       .  A
C4258      F4262   1.357       .  S
C4259      C4264   1.401       .  A
C4259      C4268   1.408   1_545  A
C4264      C4265   1.395       .  A
C4264      F4269   1.358       .  S
C4265      C4266   1.410       .  A
C4265      H4270   1.083       .  S
C4266      C4267   1.407   1_545  A
C4267      C4268   1.402       .  A
C4267      F4271   1.357       .  S
C4268      H4272   1.083       .  S
C4273      C4274   1.407   1_565  A
C4273      C4278   1.399       .  A
C4273      H4283   1.082       .  S
C4274      C4279   1.486       .  S
C4274      C4275   1.407       .  A
C4275      C4276   1.395       .  A
C4275      F4280   1.358       .  S
C4276      C4277   1.406       .  A
C4276      H4281   1.083       .  S
C4277      C4278   1.407   1_545  A
C4278      F4282   1.357       .  S
C4279      C4284   1.407   1_545  A
C4279      C4288   1.406       .  A
C4284      C4285   1.397       .  A
C4284      F4289   1.357       .  S
C4285      C4286   1.407       .  A
C4285      H4290   1.082       .  S
C4286      C4287   1.409   1_565  A
C4287      C4288   1.398       .  A
C4287      F4291   1.357       .  S
C4288      H4292   1.082       .  S
C4293      C4294   1.405   1_565  A
C4293      C4298   1.406       .  A
C4293      H4303   1.083       .  S
C4294      C4299   1.483       .  S
C4294      C4295   1.403       .  A
C4295      C4296   1.394       .  A
C4295      F4300   1.358       .  S
C4296      C4297   1.407       .  A
C4296      H4301   1.083       .  S
C4297      C4298   1.412   1_545  A
C4298      F4302   1.357       .  S
C4299      C4304   1.404       .  A
C4299      C4308   1.404   1_545  A
C4304      C4305   1.396       .  A
C4304      F4309   1.358       .  S
C4305      C4306   1.407       .  A
C4305      H4310   1.083       .  S
C4306      C4307   1.413   1_545  A
C4307      C4308   1.404       .  A
C4307      F4311   1.357       .  S
C4308      H4312   1.083       .  S
C4313      C4314   1.404       .  A
C4313      C4318   1.400       .  A
C4313      H4323   1.084       .  S
C4314      C4319   1.481       .  S
C4314      C4315   1.405       .  A
C4315      C4316   1.398       .  A
C4315      F4320   1.357       .  S
C4316      C4317   1.406       .  A
C4316      H4321   1.084       .  S
C4317      C4318   1.408       .  A
C4318      F4322   1.357       .  S
C4319      C4324   1.403       .  A
C4319      C4328   1.404   1_545  A
C4324      C4325   1.398       .  A
C4324      F4329   1.358       .  S
C4325      C4326   1.409       .  A
C4325      H4330   1.083       .  S
C4326      C4327   1.411   1_545  A
C4327      C4328   1.400       .  A
C4327      F4331   1.357       .  S
C4328      H4332   1.083       .  S
C4333      C4334   1.398       .  A
C4333      C4338   1.395       .  A
C4333      H4343   1.083   1_545  S
C4334      C4339   1.472       .  S
C4334      C4335   1.404       .  A
C4335      C4336   1.400       .  A
C4335      F4340   1.357       .  S
C4336      C4337   1.407       .  A
C4336      H4341   1.083       .  S
C4337      C4338   1.412       .  A
C4338      F4342   1.358   1_545  S
C4339      C4344   1.406   1_545  A
C4339      C4348   1.397       .  A
C4344      C4345   1.403       .  A
C4344      F4349   1.357       .  S
C4345      C4346   1.404   1_565  A
C4345      H4350   1.082       .  S
C4346      C4347   1.412       .  A
C4347      C4348   1.393       .  A
C4347      F4351   1.358       .  S
C4348      H4352   1.083       .  S
C4353      C4354   1.398   1_565  A
C4353      C4358   1.393       .  A
C4353      H4363   1.083       .  S
C4354      C4359   1.474       .  S
C4354      C4355   1.407       .  A
C4355      C4356   1.400       .  A
C4355      F4360   1.357       .  S
C4356      C4357   1.405       .  A
C4356      H4361   1.083       .  S
C4357      C4358   1.413   1_545  A
C4358      F4362   1.358       .  S
C4359      C4364   1.406   1_545  A
C4359      C4368   1.396       .  A
C4364      C4365   1.403       .  A
C4364      F4369   1.357       .  S
C4365      C4366   1.407   1_565  A
C4365      H4370   1.082       .  S
C4366      C4367   1.415       .  A
C4367      C4368   1.391       .  A
C4367      F4371   1.358       .  S
C4368      H4372   1.083       .  S
C4373      C4374   1.401       .  A
C4373      C4378   1.396       .  A
C4373      H4383   1.083       .  S
C4374      C4379   1.480       .  S
C4374      C4375   1.407   1_545  A
C4375      C4376   1.398       .  A
C4375      F4380   1.358       .  S
C4376      C4377   1.406   1_565  A
C4376      H4381   1.083       .  S
C4377      C4378   1.411       .  A
C4378      F4382   1.357       .  S
C4379      C4384   1.408       .  A
C4379      C4388   1.399   1_545  A
C4384      C4385   1.402       .  A
C4384      F4389   1.357       .  S
C4385      C4386   1.405       .  A
C4385      H4390   1.082       .  S
C4386      C4387   1.413   1_545  A
C4387      C4388   1.393       .  A
C4387      F4391   1.358       .  S
C4388      H4392   1.083       .  S
C4393      C4394   1.405       .  A
C4393      C4398   1.402       .  A
C4393      H4403   1.084       .  S
C4394      C4399   1.493       .  S
C4394      C4395   1.409       .  A
C4395      C4396   1.401       .  A
C4395      F4400   1.357       .  S
C4396      C4397   1.406       .  A
C4396      H4401   1.084       .  S
C4397      C4398   1.411       .  A
C4398      F4402   1.357       .  S
C4399      C4404   1.408       .  A
C4399      C4408   1.408       .  A
C4404      C4405   1.400       .  A
C4404      F4409   1.357       .  S
C4405      C4406   1.407       .  A
C4405      H4410   1.083       .  S
C4406      C4407   1.409       .  A
C4407      C4408   1.404       .  A
C4407      F4411   1.357       .  S
C4408      H4412   1.082       .  S
C4413      C4414   1.406       .  A
C4413      C4418   1.407       .  A
C4413      H4423   1.083       .  S
C4414      C4419   1.489       .  S
C4414      C4415   1.404       .  A
C4415      C4416   1.397       .  A
C4415      F4420   1.358       .  S
C4416      C4417   1.409       .  A
C4416      H4421   1.083       .  S
C4417      C4418   1.413       .  A
C4418      F4422   1.357       .  S
C4419      C4424   1.405       .  A
C4419      C4428   1.406       .  A
C4424      C4425   1.397       .  A
C4424      F4429   1.358       .  S
C4425      C4426   1.408       .  A
C4425      H4430   1.083       .  S
C4426      C4427   1.411       .  A
C4427      C4428   1.407       .  A
C4427      F4431   1.357       .  S
C4428      H4432   1.083       .  S
C4433      C4434   1.405       .  A
C4433      C4438   1.396       .  A
C4433      H4443   1.084       .  S
C4434      C4439   1.474       .  S
C4434      C4435   1.404       .  A
C4435      C4436   1.390       .  A
C4435      F4440   1.358       .  S
C4436      C4437   1.403       .  A
C4436      H4441   1.084       .  S
C4437      C4438   1.406       .  A
C4438      F4442   1.358       .  S
C4439      C4444   1.404       .  A
C4439      C4448   1.405       .  A
C4444      C4445   1.393       .  A
C4444      F4449   1.358       .  S
C4445      C4446   1.406       .  A
C4445      H4450   1.083       .  S
C4446      C4447   1.405       .  A
C4447      C4448   1.394       .  A
C4447      F4451   1.358       .  S
C4448      H4452   1.083       .  S
C4453      C4454   1.398       .  A
C4453      C4458   1.397       .  A
C4453      H4463   1.084       .  S
C4454      C4459   1.479       .  S
C4454      C4455   1.408       .  A
C4455      C4456   1.401       .  A
C4455      F4460   1.357       .  S
C4456      C4457   1.404       .  A
C4456      H4461   1.083       .  S
C4457      C4458   1.415       .  A
C4458      F4462   1.358       .  S
C4459      C4464   1.409       .  A
C4459      C4468   1.397       .  A
C4464      C4465   1.406       .  A
C4464      F4469   1.357       .  S
C4465      C4466   1.405       .  A
C4465      H4470   1.083       .  S
C4466      C4467   1.414       .  A
C4467      C4468   1.392       .  A
C4467      F4471   1.358       .  S
C4468      H4472   1.084       .  S
C4473      C4474   1.404       .  A
C4473      C4478   1.397       .  A
C4473      H4483   1.083       .  S
C4474      C4479   1.484       .  S
C4474      C4475   1.409       .  A
C4475      C4476   1.398       .  A
C4475      F4480   1.357       .  S
C4476      C4477   1.402       .  A
C4476      H4481   1.083       .  S
C4477      C4478   1.407       .  A
C4478      F4482   1.358       .  S
C4479      C4484   1.409       .  A
C4479      C4488   1.402       .  A
C4484      C4485   1.400       .  A
C4484      F4489   1.357       .  S
C4485      C4486   1.405       .  A
C4485      H4490   1.084       .  S
C4486      C4487   1.410       .  A
C4487      C4488   1.394       .  A
C4487      F4491   1.358       .  S
C4488      H4492   1.083       .  S
C4493      C4494   1.400       .  A
C4493      C4498   1.391       .  A
C4493      H4503   1.083       .  S
C4494      C4499   1.479       .  S
C4494      C4495   1.407       .  A
C4495      C4496   1.404   1_455  A
C4495      F4500   1.357       .  S
C4496      C4497   1.406   1_655  A
C4496      H4501   1.083       .  S
C4497      C4498   1.410       .  A
C4498      F4502   1.358       .  S
C4499      C4504   1.401       .  A
C4499      C4508   1.407       .  A
C4504      C4505   1.390       .  A
C4504      F4509   1.358       .  S
C4505      C4506   1.409       .  A
C4505      H4510   1.083       .  S
C4506      C4507   1.409       .  A
C4507      C4508   1.404       .  A
C4507      F4511   1.357       .  S
C4508      H4512   1.083       .  S
C4513      C4514   1.410       .  A
C4513      C4518   1.404       .  A
C4513      H4523   1.083       .  S
C4514      C4519   1.491       .  S
C4514      C4515   1.405       .  A
C4515      C4516   1.396       .  A
C4515      F4520   1.358       .  S
C4516      C4517   1.410       .  A
C4516      H4521   1.083       .  S
C4517      C4518   1.408       .  A
C4518      F4522   1.357       .  S
C4519      C4524   1.407       .  A
C4519      C4528   1.410       .  A
C4524      C4525   1.397       .  A
C4524      F4529   1.357       .  S
C4525      C4526   1.405       .  A
C4525      H4530   1.084       .  S
C4526      C4527   1.404       .  A
C4527      C4528   1.402       .  A
C4527      F4531   1.357       .  S
C4528      H4532   1.083       .  S
C4533      C4534   1.409       .  A
C4533      C4538   1.402       .  A
C4533      H4543   1.083       .  S
C4534      C4539   1.489       .  S
C4534      C4535   1.406       .  A
C4535      C4536   1.398       .  A
C4535      F4540   1.357       .  S
C4536      C4537   1.406       .  A
C4536      H4541   1.083       .  S
C4537      C4538   1.406       .  A
C4538      F4542   1.357       .  S
C4539      C4544   1.411       .  A
C4539      C4548   1.400       .  A
C4544      C4545   1.405       .  A
C4544      F4549   1.357       .  S
C4545      C4546   1.406       .  A
C4545      H4550   1.082       .  S
C4546      C4547   1.416       .  A
C4547      C4548   1.395       .  A
C4547      F4551   1.358       .  S
C4548      H4552   1.083       .  S
C4553      C4554   1.402       .  A
C4553      C4558   1.397       .  A
C4553      H4563   1.083       .  S
C4554      C4559   1.487       .  S
C4554      C4555   1.408       .  A
C4555      C4556   1.402       .  A
C4555      F4560   1.357       .  S
C4556      C4557   1.407       .  A
C4556      H4561   1.083       .  S
C4557      C4558   1.413       .  A
C4558      F4562   1.358       .  S
C4559      C4564   1.405       .  A
C4559      C4568   1.407       .  A
C4564      C4565   1.398       .  A
C4564      F4569   1.357       .  S
C4565      C4566   1.408       .  A
C4565      H4570   1.083       .  S
C4566      C4567   1.409       .  A
C4567      C4568   1.402       .  A
C4567      F4571   1.357       .  S
C4568      H4572   1.083       .  S
C4573      C4574   1.402       .  A
C4573      C4578   1.398       .  A
C4573      H4583   1.084       .  S
C4574      C4579   1.478       .  S
C4574      C4575   1.404       .  A
C4575      C4576   1.397       .  A
C4575      F4580   1.357       .  S
C4576      C4577   1.406       .  A
C4576      H4581   1.083       .  S
C4577      C4578   1.411       .  A
C4578      F4582   1.358       .  S
C4579      C4584   1.405       .  A
C4579      C4588   1.402       .  A
C4584      C4585   1.397       .  A
C4584      F4589   1.358       .  S
C4585      C4586   1.406       .  A
C4585      H4590   1.083       .  S
C4586      C4587   1.409       .  A
C4587      C4588   1.397       .  A
C4587      F4591   1.358       .  S
C4588      H4592   1.083       .  S
C4593      C4594   1.405       .  A
C4593      C4598   1.398       .  A
C4593      H4603   1.084       .  S
C4594      C4599   1.478   1_655  S
C4594      C4595   1.404       .  A
C4595      C4596   1.395       .  A
C4595      F4600   1.358       .  S
C4596      C4597   1.407       .  A
C4596      H4601   1.083       .  S
C4597      C4598   1.408       .  A
C4598      F4602   1.357       .  S
C4599      C4604   1.408       .  A
C4599      C4608   1.399       .  A
C4604      C4605   1.402       .  A
C4604      F4609   1.357       .  S
C4605      C4606   1.405       .  A
C4605      H4610   1.083       .  S
C4606      C4607   1.411       .  A
C4607      C4608   1.390       .  A
C4607      F4611   1.358       .  S
C4608      H4612   1.084       .  S
C4613      C4614   1.408       .  A
C4613      C4618   1.408       .  A
C4613      H4623   1.083       .  S
C4614      C4619   1.478       .  S
C4614      C4615   1.398       .  A
C4615      C4616   1.388       .  A
C4615      F4620   1.358       .  S
C4616      C4617   1.411       .  A
C4616      H4621   1.083       .  S
C4617      C4618   1.409       .  A
C4618      F4622   1.357       .  S
C4619      C4624   1.403       .  A
C4619      C4628   1.404       .  A
C4624      C4625   1.400       .  A
C4624      F4629   1.357       .  S
C4625      C4626   1.409       .  A
C4625      H4630   1.083       .  S
C4626      C4627   1.409       .  A
C4627      C4628   1.397       .  A
C4627      F4631   1.357       .  S
C4628      H4632   1.083       .  S
C4633      C4634   1.405       .  A
C4633      C4638   1.398       .  A
C4633      H4643   1.083       .  S
C4634      C4639   1.483       .  S
C4634      C4635   1.405       .  A
C4635      C4636   1.397       .  A
C4635      F4640   1.358       .  S
C4636      C4637   1.408       .  A
C4636      H4641   1.083       .  S
C4637      C4638   1.408       .  A
C4638      F4642   1.357       .  S
C4639      C4644   1.404       .  A
C4639      C4648   1.408       .  A
C4644      C4645   1.394       .  A
C4644      F4649   1.358       .  S
C4645      C4646   1.407       .  A
C4645      H4650   1.083       .  S
C4646      C4647   1.406       .  A
C4647      C4648   1.401       .  A
C4647      F4651   1.357       .  S
C4648      H4652   1.083       .  S
C4653      C4654   1.399       .  A
C4653      C4658   1.394       .  A
C4653      H4663   1.083       .  S
C4654      C4659   1.479       .  S
C4654      C4655   1.407       .  A
C4655      C4656   1.401       .  A
C4655      F4660   1.357       .  S
C4656      C4657   1.405       .  A
C4656      H4661   1.083       .  S
C4657      C4658   1.413       .  A
C4658      F4662   1.358       .  S
C4659      C4664   1.406       .  A
C4659      C4668   1.400       .  A
C4664      C4665   1.400       .  A
C4664      F4669   1.358       .  S
C4665      C4666   1.407       .  A
C4665      H4670   1.083       .  S
C4666      C4667   1.411       .  A
C4667      C4668   1.395       .  A
C4667      F4671   1.357       .  S
C4668      H4672   1.083       .  S
C4673      C4674   1.406       .  A
C4673      C4678   1.399       .  A
C4673      H4683   1.083       .  S
C4674      C4679   1.492       .  S
C4674      C4675   1.410       .  A
C4675      C4676   1.402       .  A
C4675      F4680   1.357       .  S
C4676      C4677   1.405       .  A
C4676      H4681   1.083       .  S
C4677      C4678   1.408       .  A
C4678      F4682   1.358       .  S
C4679      C4684   1.408       .  A
C4679      C4688   1.407       .  A
C4684      C4685   1.398       .  A
C4684      F4689   1.358       .  S
C4685      C4686   1.407       .  A
C4685      H4690   1.083       .  S
C4686      C4687   1.410       .  A
C4687      C4688   1.402       .  A
C4687      F4691   1.357       .  S
C4688      H4692   1.082       .  S
C4693      C4694   1.408       .  A
C4693      C4698   1.398       .  A
C4693      H4703   1.083       .  S
C4694      C4699   1.488       .  S
C4694      C4695   1.408       .  A
C4695      C4696   1.397       .  A
C4695      F4700   1.357       .  S
C4696      C4697   1.404       .  A
C4696      H4701   1.083       .  S
C4697      C4698   1.404       .  A
C4698      F4702   1.358       .  S
C4699      C4704   1.405       .  A
C4699      C4708   1.408       .  A
C4704      C4705   1.395       .  A
C4704      F4709   1.358       .  S
C4705      C4706   1.409       .  A
C4705      H4710   1.083       .  S
C4706      C4707   1.407       .  A
C4707      C4708   1.401       .  A
C4707      F4711   1.357   1_655  S
C4708      H4712   1.082       .  S
C4713      C4714   1.400       .  A
C4713      C4718   1.395       .  A
C4713      H4723   1.083       .  S
C4714      C4719   1.471       .  S
C4714      C4715   1.402       .  A
C4715      C4716   1.395       .  A
C4715      F4720   1.358       .  S
C4716      C4717   1.407       .  A
C4716      H4721   1.083       .  S
C4717      C4718   1.411       .  A
C4718      F4722   1.357       .  S
C4719      C4724   1.401       .  A
C4719      C4728   1.403       .  A
C4724      C4725   1.393       .  A
C4724      F4729   1.358       .  S
C4725      C4726   1.407       .  A
C4725      H4730   1.083       .  S
C4726      C4727   1.408       .  A
C4727      C4728   1.398       .  A
C4727      F4731   1.357       .  S
C4728      H4732   1.083       .  S
C4733      C4734   1.408       .  A
C4733      C4738   1.403       .  A
C4733      H4743   1.083       .  S
C4734      C4739   1.486       .  S
C4734      C4735   1.404       .  A
C4735      C4736   1.396       .  A
C4735      F4740   1.358       .  S
C4736      C4737   1.409       .  A
C4736      H4741   1.083       .  S
C4737      C4738   1.406       .  A
C4738      F4742   1.357       .  S
C4739      C4744   1.404       .  A
C4739      C4748   1.407       .  A
C4744      C4745   1.396       .  A
C4744      F4749   1.358       .  S
C4745      C4746   1.409       .  A
C4745      H4750   1.083       .  S
C4746      C4747   1.409       .  A
C4747      C4748   1.402       .  A
C4747      F4751   1.357       .  S
C4748      H4752   1.083       .  S
C4753      C4754   1.405       .  A
C4753      C4758   1.403       .  A
C4753      H4763   1.083       .  S
C4754      C4759   1.472       .  S
C4754      C4755   1.398       .  A
C4755      C4756   1.390       .  A
C4755      F4760   1.358       .  S
C4756      C4757   1.411       .  A
C4756      H4761   1.083       .  S
C4757      C4758   1.408       .  A
C4758      F4762   1.357       .  S
C4759      C4764   1.402       .  A
C4759      C4768   1.402       .  A
C4764      C4765   1.398       .  A
C4764      F4769   1.357       .  S
C4765      C4766   1.407       .  A
C4765      H4770   1.083       .  S
C4766      C4767   1.408       .  A
C4767      C4768   1.396       .  A
C4767      F4771   1.358       .  S
C4768      H4772   1.083       .  S
C4773      C4774   1.399       .  A
C4773      C4778   1.392       .  A
C4773      H4783   1.084       .  S
C4774      C4779   1.476       .  S
C4774      C4775   1.408       .  A
C4775      C4776   1.403       .  A
C4775      F4780   1.357       .  S
C4776      C4777   1.404       .  A
C4776      H4781   1.083       .  S
C4777      C4778   1.408       .  A
C4778      F4782   1.358       .  S
C4779      C4784   1.403       .  A
C4779      C4788   1.401       .  A
C4784      C4785   1.396       .  A
C4784      F4789   1.358       .  S
C4785      C4786   1.408       .  A
C4785      H4790   1.083       .  S
C4786      C4787   1.412       .  A
C4787      C4788   1.398       .  A
C4787      F4791   1.357       .  S
C4788      H4792   1.084       .  S
C4793      C4794   1.404       .  A
C4793      C4798   1.400       .  A
C4793      H4803   1.083       .  S
C4794      C4799   1.488       .  S
C4794      C4795   1.408       .  A
C4795      C4796   1.403       .  A
C4795      F4800   1.357       .  S
C4796      C4797   1.406       .  A
C4796      H4801   1.083       .  S
C4797      C4798   1.408       .  A
C4798      F4802   1.358       .  S
C4799      C4804   1.407   1_655  A
C4799      C4808   1.402       .  A
C4804      C4805   1.404       .  A
C4804      F4809   1.357       .  S
C4805      C4806   1.408   1_455  A
C4805      H4810   1.083       .  S
C4806      C4807   1.414       .  A
C4807      C4808   1.400       .  A
C4807      F4811   1.357       .  S
C4808      H4812   1.083       .  S
C4813      C4814   1.399       .  A
C4813      C4818   1.396       .  A
C4813      H4823   1.084       .  S
C4814      C4819   1.477       .  S
C4814      C4815   1.405       .  A
C4815      C4816   1.402       .  A
C4815      F4820   1.358       .  S
C4816      C4817   1.409       .  A
C4816      H4821   1.083       .  S
C4817      C4818   1.413       .  A
C4818      F4822   1.357       .  S
C4819      C4824   1.401       .  A
C4819      C4828   1.405       .  A
C4824      C4825   1.394       .  A
C4824      F4829   1.358       .  S
C4825      C4826   1.409       .  A
C4825      H4830   1.083       .  S
C4826      C4827   1.408       .  A
C4827      C4828   1.403       .  A
C4827      F4831   1.357       .  S
C4828      H4832   1.083       .  S
C4833      C4834   1.404       .  A
C4833      C4838   1.400       .  A
C4833      H4843   1.083       .  S
C4834      C4839   1.494       .  S
C4834      C4835   1.411       .  A
C4835      C4836   1.404       .  A
C4835      F4840   1.358       .  S
C4836      C4837   1.408       .  A
C4836      H4841   1.083       .  S
C4837      C4838   1.411       .  A
C4838      F4842   1.357       .  S
C4839      C4844   1.411       .  A
C4839      C4848   1.403       .  A
C4844      C4845   1.405       .  A
C4844      F4849   1.357       .  S
C4845      C4846   1.406       .  A
C4845      H4850   1.082       .  S
C4846      C4847   1.414       .  A
C4847      C4848   1.399       .  A
C4847      F4851   1.358       .  S
C4848      H4852   1.082       .  S
C4853      C4854   1.404       .  A
C4853      C4858   1.397       .  A
C4853      H4863   1.083       .  S
C4854      C4859   1.482       .  S
C4854      C4855   1.408       .  A
C4855      C4856   1.397       .  A
C4855      F4860   1.357       .  S
C4856      C4857   1.403       .  A
C4856      H4861   1.083       .  S
C4857      C4858   1.407       .  A
C4858      F4862   1.358       .  S
C4859      C4864   1.405       .  A
C4859      C4868   1.405       .  A
C4864      C4865   1.396       .  A
C4864      F4869   1.358       .  S
C4865      C4866   1.407       .  A
C4865      H4870   1.083       .  S
C4866      C4867   1.409       .  A
C4867      C4868   1.399       .  A
C4867      F4871   1.357       .  S
C4868      H4872   1.083       .  S
C4873      C4874   1.403       .  A
C4873      C4878   1.396       .  A
C4873      H4883   1.083       .  S
C4874      C4879   1.489       .  S
C4874      C4875   1.411       .  A
C4875      C4876   1.401       .  A
C4875      F4880   1.357       .  S
C4876      C4877   1.404       .  A
C4876      H4881   1.084       .  S
C4877      C4878   1.410       .  A
C4878      F4882   1.358       .  S
C4879      C4884   1.411       .  A
C4879      C4888   1.403       .  A
C4884      C4885   1.401       .  A
C4884      F4889   1.357       .  S
C4885      C4886   1.404       .  A
C4885      H4890   1.083       .  S
C4886      C4887   1.411       .  A
C4887      C4888   1.396       .  A
C4887      F4891   1.358       .  S
C4888      H4892   1.083       .  S
C4893      C4894   1.408       .  A
C4893      C4898   1.400       .  A
C4893      H4903   1.083       .  S
C4894      C4899   1.479       .  S
C4894      C4895   1.403       .  A
C4895      C4896   1.392       .  A
C4895      F4900   1.358       .  S
C4896      C4897   1.406       .  A
C4896      H4901   1.083       .  S
C4897      C4898   1.405       .  A
C4898      F4902   1.357       .  S
C4899      C4904   1.404       .  A
C4899      C4908   1.406       .  A
C4904      C4905   1.394       .  A
C4904      F4909   1.358       .  S
C4905      C4906   1.405       .  A
C4905      H4910   1.083       .  S
C4906      C4907   1.406       .  A
C4907      C4908   1.398       .  A
C4907      F4911   1.358       .  S
C4908      H4912   1.083       .  S
C4913      C4914   1.404       .  A
C4913      C4918   1.397       .  A
C4913      H4923   1.083       .  S
C4914      C4919   1.488       .  S
C4914      C4915   1.412       .  A
C4915      C4916   1.397       .  A
C4915      F4920   1.357       .  S
C4916      C4917   1.401       .  A
C4916      H4921   1.083       .  S
C4917      C4918   1.409       .  A
C4918      F4922   1.358       .  S
C4919      C4924   1.412       .  A
C4919      C4928   1.399       .  A
C4924      C4925   1.404       .  A
C4924      F4929   1.357       .  S
C4925      C4926   1.404       .  A
C4925      H4930   1.083       .  S
C4926      C4927   1.415       .  A
C4927      C4928   1.390       .  A
C4927      F4931   1.358       .  S
C4928      H4932   1.083       .  S
C4933      C4934   1.396       .  A
C4933      C4938   1.390       .  A
C4933      H4943   1.084       .  S
C4934      C4939   1.459       .  S
C4934      C4935   1.400       .  A
C4935      C4936   1.396       .  A
C4935      F4940   1.357       .  S
C4936      C4937   1.407       .  A
C4936      H4941   1.083       .  S
C4937      C4938   1.412       .  A
C4938      F4942   1.358       .  S
C4939      C4944   1.396       .  A
C4939      C4948   1.400       .  A
C4944      C4945   1.388       .  A
C4944      F4949   1.358       .  S
C4945      C4946   1.409       .  A
C4945      H4950   1.083       .  S
C4946      C4947   1.409       .  A
C4947      C4948   1.398       .  A
C4947      F4951   1.357       .  S
C4948      H4952   1.083       .  S
C4953      C4954   1.401       .  A
C4953      C4958   1.394       .  A
C4953      H4963   1.084       .  S
C4954      C4959   1.473       .  S
C4954      C4955   1.404       .  A
C4955      C4956   1.398       .  A
C4955      F4960   1.357       .  S
C4956      C4957   1.406       .  A
C4956      H4961   1.083       .  S
C4957      C4958   1.410       .  A
C4958      F4962   1.358       .  S
C4959      C4964   1.402       .  A
C4959      C4968   1.403       .  A
C4964      C4965   1.392       .  A
C4964      F4969   1.358       .  S
C4965      C4966   1.407       .  A
C4965      H4970   1.083       .  S
C4966      C4967   1.410       .  A
C4967      C4968   1.399       .  A
C4967      F4971   1.357       .  S
C4968      H4972   1.083       .  S
C4973      C4974   1.400       .  A
C4973      C4978   1.394       .  A
C4973      H4983   1.085       .  S
C4974      C4979   1.479       .  S
C4974      C4975   1.408       .  A
C4975      C4976   1.400       .  A
C4975      F4980   1.357       .  S
C4976      C4977   1.405       .  A
C4976      H4981   1.084       .  S
C4977      C4978   1.412       .  A
C4978      F4982   1.358       .  S
C4979      C4984   1.407       .  A
C4979      C4988   1.399       .  A
C4984      C4985   1.401       .  A
C4984      F4989   1.357       .  S
C4985      C4986   1.407       .  A
C4985      H4990   1.084       .  S
C4986      C4987   1.413       .  A
C4987      C4988   1.394       .  A
C4987      F4991   1.358       .  S
C4988      H4992   1.085       .  S
C4993      C4994   1.400       .  A
C4993      C4998   1.395       .  A
C4993      H5003   1.085       .  S
C4994      C4999   1.486       .  S
C4994      C4995   1.409       .  A
C4995      C4996   1.405       .  A
C4995      F5000   1.357       .  S
C4996      C4997   1.408       .  A
C4996      H5001   1.084       .  S
C4997      C4998   1.414       .  A
C4998      F5002   1.357       .  S
C4999      C5004   1.410       .  A
C4999      C5008   1.402       .  A
C5004      C5005   1.403       .  A
C5004      F5009   1.357       .  S
C5005      C5006   1.405       .  A
C5005      H5010   1.084       .  S
C5006      C5007   1.410       .  A
C5007      C5008   1.398       .  A
C5007      F5011   1.358       .  S
C5008      H5012   1.084       .  S
C5013      C5014   1.404       .  A
C5013      C5018   1.402       .  A
C5013      H5023   1.084       .  S
C5014      C5019   1.481       .  S
C5014      C5015   1.403       .  A
C5015      C5016   1.397       .  A
C5015      F5020   1.358       .  S
C5016      C5017   1.409       .  A
C5016      H5021   1.083       .  S
C5017      C5018   1.411       .  A
C5018      F5022   1.357       .  S
C5019      C5024   1.404       .  A
C5019      C5028   1.404       .  A
C5024      C5025   1.398       .  A
C5024      F5029   1.357       .  S
C5025      C5026   1.408       .  A
C5025      H5030   1.083       .  S
C5026      C5027   1.410       .  A
C5027      C5028   1.401       .  A
C5027      F5031   1.357       .  S
C5028      H5032   1.083       .  S
C5033      C5034   1.398       .  A
C5033      C5038   1.392       .  A
C5033      H5043   1.084       .  S
C5034      C5039   1.477       .  S
C5034      C5035   1.406       .  A
C5035      C5036   1.403       .  A
C5035      F5040   1.357       .  S
C5036      C5037   1.408       .  A
C5036      H5041   1.083       .  S
C5037      C5038   1.414       .  A
C5038      F5042   1.358       .  S
C5039      C5044   1.403       .  A
C5039      C5048   1.404       .  A
C5044      C5045   1.393       .  A
C5044      F5049   1.358       .  S
C5045      C5046   1.405       .  A
C5045      H5050   1.083       .  S
C5046      C5047   1.409       .  A
C5047      C5048   1.402       .  A
C5047      F5051   1.357       .  S
C5048      H5052   1.083       .  S
C5053      C5054   1.406       .  A
C5053      C5058   1.402       .  A
C5053      H5063   1.084       .  S
C5054      C5059   1.481   1_455  S
C5054      C5055   1.403       .  A
C5055      C5056   1.394       .  A
C5055      F5060   1.358       .  S
C5056      C5057   1.408       .  A
C5056      H5061   1.084       .  S
C5057      C5058   1.408       .  A
C5058      F5062   1.357       .  S
C5059      C5064   1.406       .  A
C5059      C5068   1.403       .  A
C5064      C5065   1.396       .  A
C5064      F5069   1.358       .  S
C5065      C5066   1.406       .  A
C5065      H5070   1.083       .  S
C5066      C5067   1.411       .  A
C5067      C5068   1.400       .  A
C5067      F5071   1.357       .  S
C5068      H5072   1.083       .  S
C5073      C5074   1.403       .  A
C5073      C5078   1.395       .  A
C5073      H5083   1.083       .  S
C5074      C5079   1.486       .  S
C5074      C5075   1.411       .  A
C5075      C5076   1.401       .  A
C5075      F5080   1.357       .  S
C5076      C5077   1.403       .  A
C5076      H5081   1.083       .  S
C5077      C5078   1.407       .  A
C5078      F5082   1.358       .  S
C5079      C5084   1.412       .  A
C5079      C5088   1.399       .  A
C5084      C5085   1.403       .  A
C5084      F5089   1.357       .  S
C5085      C5086   1.403       .  A
C5085      H5090   1.083       .  S
C5086      C5087   1.414       .  A
C5087      C5088   1.392       .  A
C5087      F5091   1.358       .  S
C5088      H5092   1.083       .  S
C5093      C5094   1.407       .  A
C5093      C5098   1.400       .  A
C5093      H5103   1.083       .  S
C5094      C5099   1.489       .  S
C5094      C5095   1.408       .  A
C5095      C5096   1.400       .  A
C5095      F5100   1.358       .  S
C5096      C5097   1.406       .  A
C5096      H5101   1.083       .  S
C5097      C5098   1.406       .  A
C5098      F5102   1.357       .  S
C5099      C5104   1.405       .  A
C5099      C5108   1.408       .  A
C5104      C5105   1.396       .  A
C5104      F5109   1.358       .  S
C5105      C5106   1.410       .  A
C5105      H5110   1.083       .  S
C5106      C5107   1.409       .  A
C5107      C5108   1.403       .  A
C5107      F5111   1.357       .  S
C5108      H5112   1.083       .  S
C5113      C5114   1.402       .  A
C5113      C5118   1.401       .  A
C5113      H5123   1.083       .  S
C5114      C5119   1.472       .  S
C5114      C5115   1.400       .  A
C5115      C5116   1.393       .  A
C5115      F5120   1.358       .  S
C5116      C5117   1.409       .  A
C5116      H5121   1.083       .  S
C5117      C5118   1.411       .  A
C5118      F5122   1.357       .  S
C5119      C5124   1.404       .  A
C5119      C5128   1.399       .  A
C5124      C5125   1.399       .  A
C5124      F5129   1.357       .  S
C5125      C5126   1.406       .  A
C5125      H5130   1.084       .  S
C5126      C5127   1.412       .  A
C5127      C5128   1.397       .  A
C5127      F5131   1.358       .  S
C5128      H5132   1.084       .  S
C5133      C5134   1.406       .  A
C5133      C5138   1.404       .  A
C5133      H5143   1.083       .  S
C5134      C5139   1.483       .  S
C5134      C5135   1.402       .  A
C5135      C5136   1.395       .  A
C5135      F5140   1.358       .  S
C5136      C5137   1.408       .  A
C5136      H5141   1.083       .  S
C5137      C5138   1.410       .  A
C5138      F5142   1.357       .  S
C5139      C5144   1.403       .  A
C5139      C5148   1.405       .  A
C5144      C5145   1.397       .  A
C5144      F5149   1.358       .  S
C5145      C5146   1.409       .  A
C5145      H5150   1.083       .  S
C5146      C5147   1.409       .  A
C5147      C5148   1.402       .  A
C5147      F5151   1.357       .  S
C5148      H5152   1.083       .  S
C5153      C5154   1.402       .  A
C5153      C5158   1.396       .  A
C5153      H5163   1.083       .  S
C5154      C5159   1.491       .  S
C5154      C5155   1.409       .  A
C5155      C5156   1.408       .  A
C5155      F5160   1.357       .  S
C5156      C5157   1.409       .  A
C5156      H5161   1.083       .  S
C5157      C5158   1.413       .  A
C5158      F5162   1.358       .  S
C5159      C5164   1.410       .  A
C5159      C5168   1.401       .  A
C5164      C5165   1.409       .  A
C5164      F5169   1.357       .  S
C5165      C5166   1.408       .  A
C5165      H5170   1.083       .  S
C5166      C5167   1.413       .  A
C5167      C5168   1.394       .  A
C5167      F5171   1.358       .  S
C5168      H5172   1.083       .  S
C5173      C5174   1.400       .  A
C5173      C5178   1.392       .  A
C5173      H5183   1.084       .  S
C5174      C5179   1.472       .  S
C5174      C5175   1.403       .  A
C5175      C5176   1.398       .  A
C5175      F5180   1.357       .  S
C5176      C5177   1.407       .  A
C5176      H5181   1.083       .  S
C5177      C5178   1.410       .  A
C5178      F5182   1.358       .  S
C5179      C5184   1.401       .  A
C5179      C5188   1.404       .  A
C5184      C5185   1.390       .  A
C5184      F5189   1.358       .  S
C5185      C5186   1.407       .  A
C5185      H5190   1.083       .  S
C5186      C5187   1.409       .  A
C5187      C5188   1.400       .  A
C5187      F5191   1.357       .  S
C5188      H5192   1.083       .  S
C5193      C5194   1.407       .  A
C5193      C5198   1.399       .  A
C5193      H5203   1.083       .  S
C5194      C5199   1.490       .  S
C5194      C5195   1.409       .  A
C5195      C5196   1.399       .  A
C5195      F5200   1.357       .  S
C5196      C5197   1.404       .  A
C5196      H5201   1.084       .  S
C5197      C5198   1.406       .  A
C5198      F5202   1.358       .  S
C5199      C5204   1.407       .  A
C5199      C5208   1.407       .  A
C5204      C5205   1.397       .  A
C5204      F5209   1.358       .  S
C5205      C5206   1.408       .  A
C5205      H5210   1.083       .  S
C5206      C5207   1.410       .  A
C5207      C5208   1.401       .  A
C5207      F5211   1.357       .  S
C5208      H5212   1.083       .  S
C5213      C5214   1.400       .  A
C5213      C5218   1.394       .  A
C5213      H5223   1.084       .  S
C5214      C5219   1.481       .  S
C5214      C5215   1.410       .  A
C5215      C5216   1.399       .  A
C5215      F5220   1.357       .  S
C5216      C5217   1.403       .  A
C5216      H5221   1.084       .  S
C5217      C5218   1.412       .  A
C5218      F5222   1.358       .  S
C5219      C5224   1.412       .  A
C5219      C5228   1.399       .  A
C5224      C5225   1.403       .  A
C5224      F5229   1.358       .  S
C5225      C5226   1.402       .  A
C5225      H5230   1.083       .  S
C5226      C5227   1.408       .  A
C5227      C5228   1.391       .  A
C5227      F5231   1.358       .  S
C5228      H5232   1.083       .  S
C5233      C5234   1.404       .  A
C5233      C5238   1.397       .  A
C5233      H5243   1.082       .  S
C5234      C5239   1.487       .  S
C5234      C5235   1.410       .  A
C5235      C5236   1.401       .  A
C5235      F5240   1.358       .  S
C5236      C5237   1.403       .  A
C5236      H5241   1.083       .  S
C5237      C5238   1.405       .  A
C5238      F5242   1.358       .  S
C5239      C5244   1.412       .  A
C5239      C5248   1.400       .  A
C5244      C5245   1.404       .  A
C5244      F5249   1.357       .  S
C5245      C5246   1.403       .  A
C5245      H5250   1.082       .  S
C5246      C5247   1.413       .  A
C5247      C5248   1.394       .  A
C5247      F5251   1.358       .  S
C5248      H5252   1.083       .  S
C5253      C5254   1.404       .  A
C5253      C5258   1.396       .  A
C5253      H5263   1.083       .  S
C5254      C5259   1.482       .  S
C5254      C5255   1.406       .  A
C5255      C5256   1.399       .  A
C5255      F5260   1.357       .  S
C5256      C5257   1.407       .  A
C5256      H5261   1.083       .  S
C5257      C5258   1.408       .  A
C5258      F5262   1.358       .  S
C5259      C5264   1.407       .  A
C5259      C5268   1.400       .  A
C5264      C5265   1.401       .  A
C5264      F5269   1.357       .  S
C5265      C5266   1.407       .  A
C5265      H5270   1.083       .  S
C5266      C5267   1.413       .  A
C5267      C5268   1.393       .  A
C5267      F5271   1.358       .  S
C5268      H5272   1.084       .  S
C5273      C5274   1.408       .  A
C5273      C5278   1.404       .  A
C5273      H5283   1.083       .  S
C5274      C5279   1.481       .  S
C5274      C5275   1.401       .  A
C5275      C5276   1.393       .  A
C5275      F5280   1.358       .  S
C5276      C5277   1.408       .  A
C5276      H5281   1.083       .  S
C5277      C5278   1.407       .  A
C5278      F5282   1.357       .  S
C5279      C5284   1.407       .  A
C5279      C5288   1.399       .  A
C5284      C5285   1.403   1_455  A
C5284      F5289   1.357       .  S
C5285      C5286   1.407   1_655  A
C5285      H5290   1.083       .  S
C5286      C5287   1.415       .  A
C5287      C5288   1.396       .  A
C5287      F5291   1.357       .  S
C5288      H5292   1.084       .  S
C5293      C5294   1.404       .  A
C5293      C5298   1.400       .  A
C5293      H5303   1.083       .  S
C5294      C5299   1.485       .  S
C5294      C5295   1.406       .  A
C5295      C5296   1.401       .  A
C5295      F5300   1.357       .  S
C5296      C5297   1.408       .  A
C5296      H5301   1.083       .  S
C5297      C5298   1.411       .  A
C5298      F5302   1.357       .  S
C5299      C5304   1.406       .  A
C5299      C5308   1.401       .  A
C5304      C5305   1.403       .  A
C5304      F5309   1.357       .  S
C5305      C5306   1.409       .  A
C5305      H5310   1.082       .  S
C5306      C5307   1.413       .  A
C5307      C5308   1.398       .  A
C5307      F5311   1.357       .  S
C5308      H5312   1.083       .  S
